 xtb: 6.7.1pre (5071a88)
          10032618563D

118126  0     0  0            999 V2000
   25.9132   25.2544   43.4089 C   0  0  0  0  0  0  0  0  0  0  0  0
   26.6074   24.6377   43.1255 H   0  0  0  0  0  0  0  0  0  0  0  0
   26.3441   26.0870   43.6573 H   0  0  0  0  0  0  0  0  0  0  0  0
   25.2456   24.6986   44.5924 C   0  0  0  0  0  0  0  0  0  0  0  0
   24.8061   25.4198   45.0716 H   0  0  0  0  0  0  0  0  0  0  0  0
   25.9156   24.3194   45.1817 H   0  0  0  0  0  0  0  0  0  0  0  0
   24.2491   23.6619   44.2726 C   0  0  0  0  0  0  0  0  0  0  0  0
   23.7915   23.3961   45.0858 H   0  0  0  0  0  0  0  0  0  0  0  0
   24.7027   22.8812   43.9169 H   0  0  0  0  0  0  0  0  0  0  0  0
   23.2464   24.1447   43.2783 C   0  0  0  0  0  0  0  0  0  0  0  0
   22.5928   24.6889   43.7438 H   0  0  0  0  0  0  0  0  0  0  0  0
   22.7791   23.3753   42.9178 H   0  0  0  0  0  0  0  0  0  0  0  0
   23.7959   24.9424   42.1345 C   0  0  0  0  0  0  0  0  0  0  0  0
   26.6326   25.8438   40.4690 C   0  0  0  0  0  0  0  0  0  0  0  0
   27.0445   25.0405   40.6949 H   0  0  0  0  0  0  0  0  0  0  0  0
   25.5454   26.2856   41.1915 C   0  0  0  0  0  0  0  0  0  0  0  0
   24.9577   27.4849   40.8605 C   0  0  0  0  0  0  0  0  0  0  0  0
   27.1119   26.5902   39.4119 C   0  0  0  0  0  0  0  0  0  0  0  0
   27.8550   26.2960   38.9360 H   0  0  0  0  0  0  0  0  0  0  0  0
   26.7690   26.8968   36.6863 H   0  0  0  0  0  0  0  0  0  0  0  0
   25.0158   25.5073   42.2750 N   0  0  0  0  0  0  0  0  0  0  0  0
   23.1411   25.0839   41.1055 O   0  0  0  0  0  0  0  0  0  0  0  0
   24.2425   27.8021   41.3635 H   0  0  0  0  0  0  0  0  0  0  0  0
   25.4201   28.2173   39.7929 C   0  0  0  0  0  0  0  0  0  0  0  0
   25.0058   29.0188   39.5669 H   0  0  0  0  0  0  0  0  0  0  0  0
   26.4918   27.7693   39.0596 C   0  0  0  0  0  0  0  0  0  0  0  0
   26.7031   27.8599   36.5901 C   0  0  0  0  0  0  0  0  0  0  0  0
   25.8062   28.0692   36.2867 H   0  0  0  0  0  0  0  0  0  0  0  0
   27.1653   29.8384   38.0130 C   0  0  0  0  0  0  0  0  0  0  0  0
   27.3771   30.4843   36.7078 C   0  0  0  0  0  0  0  0  0  0  0  0
   27.7070   29.8143   35.5644 C   0  0  0  0  0  0  0  0  0  0  0  0
   27.7021   28.3257   35.5482 C   0  0  0  0  0  0  0  0  0  0  0  0
   28.5868   27.9862   35.7565 H   0  0  0  0  0  0  0  0  0  0  0  0
   27.4465   28.0014   34.6710 H   0  0  0  0  0  0  0  0  0  0  0  0
   27.9897   30.8134   34.6321 C   0  0  0  0  0  0  0  0  0  0  0  0
   28.4607   30.6398   33.2399 C   0  0  0  0  0  0  0  0  0  0  0  0
   27.1605   32.9378   37.2759 C   0  0  0  0  0  0  0  0  0  0  0  0
   26.0615   32.8900   38.1036 C   0  0  0  0  0  0  0  0  0  0  0  0
   25.5072   32.1430   38.0975 H   0  0  0  0  0  0  0  0  0  0  0  0
   25.7823   33.9490   38.9406 C   0  0  0  0  0  0  0  0  0  0  0  0
   25.0419   33.9162   39.5008 H   0  0  0  0  0  0  0  0  0  0  0  0
   26.5987   35.0537   38.9456 C   0  0  0  0  0  0  0  0  0  0  0  0
   27.6781   35.1130   38.0816 C   0  0  0  0  0  0  0  0  0  0  0  0
   28.2124   35.8734   38.0628 H   0  0  0  0  0  0  0  0  0  0  0  0
   27.9654   34.0601   37.2531 C   0  0  0  0  0  0  0  0  0  0  0  0
   28.6970   34.1003   36.6800 H   0  0  0  0  0  0  0  0  0  0  0  0
   25.4272   36.0220   40.7619 C   0  0  0  0  0  0  0  0  0  0  0  0
   25.4446   36.8036   41.3194 H   0  0  0  0  0  0  0  0  0  0  0  0
   25.5847   35.2422   41.2990 H   0  0  0  0  0  0  0  0  0  0  0  0
   24.5677   35.9510   40.3393 H   0  0  0  0  0  0  0  0  0  0  0  0
   28.6866   31.6903   31.6456 H   0  0  0  0  0  0  0  0  0  0  0  0
   28.0476   32.4004   32.7500 H   0  0  0  0  0  0  0  0  0  0  0  0
   26.9316   28.4946   37.9013 N   0  0  0  0  0  0  0  0  0  0  0  0
   27.4666   31.8204   36.4407 N   0  0  0  0  0  0  0  0  0  0  0  0
   27.8276   32.0331   35.1579 N   0  0  0  0  0  0  0  0  0  0  0  0
   28.4206   31.7259   32.4738 N   0  0  0  0  0  0  0  0  0  0  0  0
   27.2785   30.4088   39.0787 O   0  0  0  0  0  0  0  0  0  0  0  0
   28.8837   29.5563   32.8751 O   0  0  0  0  0  0  0  0  0  0  0  0
   26.4345   36.1252   39.7709 O   0  0  0  0  0  0  0  0  0  0  0  0
   17.7338   51.9874   51.1445 C   0  0  0  0  0  0  0  0  0  0  0  0
   17.0802   51.4432   51.6100 H   0  0  0  0  0  0  0  0  0  0  0  0
   17.2665   52.7568   50.7840 H   0  0  0  0  0  0  0  0  0  0  0  0
   17.6285   51.0482   48.9717 O   0  0  0  0  0  0  0  0  0  0  0  0
   21.0861   41.0784   46.8118 C   0  0  0  0  0  0  0  0  0  0  0  0
   22.1655   41.0191   45.9477 C   0  0  0  0  0  0  0  0  0  0  0  0
   22.6998   40.2587   45.9290 H   0  0  0  0  0  0  0  0  0  0  0  0
   19.9146   40.1101   48.6281 C   0  0  0  0  0  0  0  0  0  0  0  0
   19.9320   39.3285   49.1856 H   0  0  0  0  0  0  0  0  0  0  0  0
   20.0721   40.8899   49.1652 H   0  0  0  0  0  0  0  0  0  0  0  0
   19.0551   40.1811   48.2055 H   0  0  0  0  0  0  0  0  0  0  0  0
   20.9219   40.0069   47.6371 O   0  0  0  0  0  0  0  0  0  0  0  0
   20.9792   48.3628   46.9258 C   0  0  0  0  0  0  0  0  0  0  0  0
   22.3424   49.8361   46.8022 H   0  0  0  0  0  0  0  0  0  0  0  0
   21.1905   48.2722   44.4563 C   0  0  0  0  0  0  0  0  0  0  0  0
   20.2936   48.0629   44.1528 H   0  0  0  0  0  0  0  0  0  0  0  0
   21.2564   49.2353   44.5524 H   0  0  0  0  0  0  0  0  0  0  0  0
   21.6527   46.2937   45.8791 C   0  0  0  0  0  0  0  0  0  0  0  0
   21.8645   45.6478   44.5740 C   0  0  0  0  0  0  0  0  0  0  0  0
   22.1944   46.3178   43.4306 C   0  0  0  0  0  0  0  0  0  0  0  0
   22.1895   47.8064   43.4144 C   0  0  0  0  0  0  0  0  0  0  0  0
   23.0742   48.1459   43.6227 H   0  0  0  0  0  0  0  0  0  0  0  0
   21.9339   48.1307   42.5371 H   0  0  0  0  0  0  0  0  0  0  0  0
   22.4771   45.3187   42.4983 C   0  0  0  0  0  0  0  0  0  0  0  0
   22.9481   45.4923   41.1061 C   0  0  0  0  0  0  0  0  0  0  0  0
   21.6479   43.1943   45.1421 C   0  0  0  0  0  0  0  0  0  0  0  0
   20.5489   43.2421   45.9698 C   0  0  0  0  0  0  0  0  0  0  0  0
   19.9946   43.9891   45.9636 H   0  0  0  0  0  0  0  0  0  0  0  0
   20.2697   42.1831   46.8067 C   0  0  0  0  0  0  0  0  0  0  0  0
   22.4528   42.0720   45.1193 C   0  0  0  0  0  0  0  0  0  0  0  0
   23.1844   42.0318   44.5461 H   0  0  0  0  0  0  0  0  0  0  0  0
   23.1740   44.4418   39.5118 H   0  0  0  0  0  0  0  0  0  0  0  0
   22.5350   43.7317   40.6162 H   0  0  0  0  0  0  0  0  0  0  0  0
   21.4190   47.6375   45.7674 N   0  0  0  0  0  0  0  0  0  0  0  0
   21.9540   44.3117   44.3069 N   0  0  0  0  0  0  0  0  0  0  0  0
   22.3150   44.0990   43.0240 N   0  0  0  0  0  0  0  0  0  0  0  0
   22.9080   44.4062   40.3399 N   0  0  0  0  0  0  0  0  0  0  0  0
   21.7659   45.7233   46.9449 O   0  0  0  0  0  0  0  0  0  0  0  0
   23.3711   46.5758   40.7413 O   0  0  0  0  0  0  0  0  0  0  0  0
   20.4006   50.8777   51.2750 C   0  0  0  0  0  0  0  0  0  0  0  0
   21.0948   51.4944   50.9917 H   0  0  0  0  0  0  0  0  0  0  0  0
   20.8315   50.0451   51.5234 H   0  0  0  0  0  0  0  0  0  0  0  0
   19.7330   51.4335   52.4586 C   0  0  0  0  0  0  0  0  0  0  0  0
   19.2935   50.7123   52.9378 H   0  0  0  0  0  0  0  0  0  0  0  0
   20.4030   51.8127   53.0479 H   0  0  0  0  0  0  0  0  0  0  0  0
   18.7365   52.4702   52.1387 C   0  0  0  0  0  0  0  0  0  0  0  0
   18.2789   52.7360   52.9519 H   0  0  0  0  0  0  0  0  0  0  0  0
   19.1901   53.2509   51.7830 H   0  0  0  0  0  0  0  0  0  0  0  0
   18.2833   51.1897   50.0007 C   0  0  0  0  0  0  0  0  0  0  0  0
   21.1200   50.2883   48.3351 C   0  0  0  0  0  0  0  0  0  0  0  0
   21.5319   51.0916   48.5610 H   0  0  0  0  0  0  0  0  0  0  0  0
   20.0328   49.8465   49.0577 C   0  0  0  0  0  0  0  0  0  0  0  0
   19.4451   48.6472   48.7267 C   0  0  0  0  0  0  0  0  0  0  0  0
   18.7299   48.3300   49.2297 H   0  0  0  0  0  0  0  0  0  0  0  0
   19.9075   47.9148   47.6591 C   0  0  0  0  0  0  0  0  0  0  0  0
   19.4932   47.1133   47.4330 H   0  0  0  0  0  0  0  0  0  0  0  0
   21.5993   49.5419   47.2781 C   0  0  0  0  0  0  0  0  0  0  0  0
   19.5293   42.2159   47.3670 H   0  0  0  0  0  0  0  0  0  0  0  0
   19.5032   50.6248   50.1412 N   0  0  0  0  0  0  0  0  0  0  0  0
  1  2  1  0  0  0  0
  1  3  1  0  0  0  0
  1  4  1  0  0  0  0
  4  5  1  0  0  0  0
  4  6  1  0  0  0  0
  4  7  1  0  0  0  0
  7  8  1  0  0  0  0
  7  9  1  0  0  0  0
  7 10  1  0  0  0  0
 10 11  1  0  0  0  0
 10 12  1  0  0  0  0
 10 13  1  0  0  0  0
 14 15  1  0  0  0  0
 14 16  4  0  0  0  0
 16 17  4  0  0  0  0
 14 18  4  0  0  0  0
 18 19  1  0  0  0  0
  1 21  1  0  0  0  0
 13 21  4  0  0  0  0
 16 21  1  0  0  0  0
 13 22  2  0  0  0  0
 17 23  1  0  0  0  0
 17 24  4  0  0  0  0
 24 25  1  0  0  0  0
 18 26  4  0  0  0  0
 24 26  4  0  0  0  0
 20 27  1  0  0  0  0
 27 28  1  0  0  0  0
 29 30  1  0  0  0  0
 30 31  4  0  0  0  0
 27 32  1  0  0  0  0
 31 32  1  0  0  0  0
 32 33  1  0  0  0  0
 32 34  1  0  0  0  0
 31 35  4  0  0  0  0
 35 36  1  0  0  0  0
 37 38  4  0  0  0  0
 38 39  1  0  0  0  0
 38 40  4  0  0  0  0
 40 41  1  0  0  0  0
 40 42  4  0  0  0  0
 42 43  4  0  0  0  0
 43 44  1  0  0  0  0
 37 45  4  0  0  0  0
 43 45  4  0  0  0  0
 45 46  1  0  0  0  0
 47 48  1  0  0  0  0
 47 49  1  0  0  0  0
 47 50  1  0  0  0  0
 26 53  1  0  0  0  0
 27 53  1  0  0  0  0
 29 53  4  0  0  0  0
 30 54  4  0  0  0  0
 37 54  1  0  0  0  0
 35 55  4  0  0  0  0
 54 55  4  0  0  0  0
 36 56  4  0  0  0  0
 51 56  1  0  0  0  0
 52 56  1  0  0  0  0
 29 57  2  0  0  0  0
 36 58  2  0  0  0  0
 42 59  1  0  0  0  0
 47 59  1  0  0  0  0
 60 61  1  0  0  0  0
 60 62  1  0  0  0  0
 64 65  4  0  0  0  0
 65 66  1  0  0  0  0
 67 68  1  0  0  0  0
 67 69  1  0  0  0  0
 67 70  1  0  0  0  0
 64 71  1  0  0  0  0
 67 71  1  0  0  0  0
 74 75  1  0  0  0  0
 74 76  1  0  0  0  0
 77 78  1  0  0  0  0
 78 79  4  0  0  0  0
 74 80  1  0  0  0  0
 79 80  1  0  0  0  0
 80 81  1  0  0  0  0
 80 82  1  0  0  0  0
 79 83  4  0  0  0  0
 83 84  1  0  0  0  0
 85 86  4  0  0  0  0
 86 87  1  0  0  0  0
 64 88  4  0  0  0  0
 86 88  4  0  0  0  0
 65 89  4  0  0  0  0
 85 89  4  0  0  0  0
 89 90  1  0  0  0  0
 72 93  1  0  0  0  0
 74 93  1  0  0  0  0
 77 93  4  0  0  0  0
 78 94  4  0  0  0  0
 85 94  1  0  0  0  0
 83 95  4  0  0  0  0
 94 95  4  0  0  0  0
 84 96  4  0  0  0  0
 91 96  1  0  0  0  0
 92 96  1  0  0  0  0
 77 97  2  0  0  0  0
 84 98  2  0  0  0  0
 99100  1  0  0  0  0
 99101  1  0  0  0  0
 99102  1  0  0  0  0
102103  1  0  0  0  0
102104  1  0  0  0  0
 60105  1  0  0  0  0
102105  1  0  0  0  0
105106  1  0  0  0  0
105107  1  0  0  0  0
 60108  1  0  0  0  0
 63108  2  0  0  0  0
109110  1  0  0  0  0
109111  4  0  0  0  0
111112  4  0  0  0  0
112113  1  0  0  0  0
 72114  4  0  0  0  0
112114  4  0  0  0  0
114115  1  0  0  0  0
 72116  4  0  0  0  0
 73116  1  0  0  0  0
109116  4  0  0  0  0
 88117  1  0  0  0  0
 99118  1  0  0  0  0
108118  4  0  0  0  0
111118  1  0  0  0  0
M  END
