 xtb: 6.7.1pre (5071a88)
          10032619183D

767819  0     0  0            999 V2000
   15.6924   39.0966   43.4089 C   0  0  0  0  0  0  0  0  0  0  0  0
   16.3866   38.4799   43.1255 H   0  0  0  0  0  0  0  0  0  0  0  0
   16.1233   39.9292   43.6573 H   0  0  0  0  0  0  0  0  0  0  0  0
   15.0248   38.5408   44.5924 C   0  0  0  0  0  0  0  0  0  0  0  0
   14.5853   39.2620   45.0716 H   0  0  0  0  0  0  0  0  0  0  0  0
   15.6948   38.1616   45.1817 H   0  0  0  0  0  0  0  0  0  0  0  0
   14.0283   37.5041   44.2726 C   0  0  0  0  0  0  0  0  0  0  0  0
   13.5707   37.2383   45.0858 H   0  0  0  0  0  0  0  0  0  0  0  0
   14.4819   36.7234   43.9169 H   0  0  0  0  0  0  0  0  0  0  0  0
   13.0256   37.9869   43.2783 C   0  0  0  0  0  0  0  0  0  0  0  0
   12.3720   38.5311   43.7438 H   0  0  0  0  0  0  0  0  0  0  0  0
   12.5583   37.2175   42.9178 H   0  0  0  0  0  0  0  0  0  0  0  0
   13.5751   38.7846   42.1345 C   0  0  0  0  0  0  0  0  0  0  0  0
   16.4118   39.6860   40.4690 C   0  0  0  0  0  0  0  0  0  0  0  0
   16.8237   38.8827   40.6949 H   0  0  0  0  0  0  0  0  0  0  0  0
   15.3246   40.1278   41.1915 C   0  0  0  0  0  0  0  0  0  0  0  0
   14.7369   41.3271   40.8605 C   0  0  0  0  0  0  0  0  0  0  0  0
   16.8911   40.4324   39.4119 C   0  0  0  0  0  0  0  0  0  0  0  0
   17.6342   40.1382   38.9360 H   0  0  0  0  0  0  0  0  0  0  0  0
   16.5482   40.7390   36.6863 H   0  0  0  0  0  0  0  0  0  0  0  0
   14.7950   39.3495   42.2750 N   0  0  0  0  0  0  0  0  0  0  0  0
   12.9203   38.9261   41.1055 O   0  0  0  0  0  0  0  0  0  0  0  0
   14.0217   41.6443   41.3635 H   0  0  0  0  0  0  0  0  0  0  0  0
   15.1993   42.0595   39.7929 C   0  0  0  0  0  0  0  0  0  0  0  0
   14.7850   42.8610   39.5669 H   0  0  0  0  0  0  0  0  0  0  0  0
   16.2710   41.6115   39.0596 C   0  0  0  0  0  0  0  0  0  0  0  0
   16.4823   41.7021   36.5901 C   0  0  0  0  0  0  0  0  0  0  0  0
   15.5854   41.9114   36.2867 H   0  0  0  0  0  0  0  0  0  0  0  0
   16.9445   43.6806   38.0130 C   0  0  0  0  0  0  0  0  0  0  0  0
   17.1563   44.3265   36.7078 C   0  0  0  0  0  0  0  0  0  0  0  0
   17.4862   43.6565   35.5644 C   0  0  0  0  0  0  0  0  0  0  0  0
   17.4813   42.1679   35.5482 C   0  0  0  0  0  0  0  0  0  0  0  0
   18.3660   41.8284   35.7565 H   0  0  0  0  0  0  0  0  0  0  0  0
   17.2257   41.8436   34.6710 H   0  0  0  0  0  0  0  0  0  0  0  0
   17.7689   44.6556   34.6321 C   0  0  0  0  0  0  0  0  0  0  0  0
   18.2399   44.4820   33.2399 C   0  0  0  0  0  0  0  0  0  0  0  0
   16.9397   46.7800   37.2759 C   0  0  0  0  0  0  0  0  0  0  0  0
   15.8407   46.7322   38.1036 C   0  0  0  0  0  0  0  0  0  0  0  0
   15.2864   45.9852   38.0975 H   0  0  0  0  0  0  0  0  0  0  0  0
   15.5615   47.7912   38.9406 C   0  0  0  0  0  0  0  0  0  0  0  0
   14.8211   47.7584   39.5008 H   0  0  0  0  0  0  0  0  0  0  0  0
   16.3779   48.8959   38.9456 C   0  0  0  0  0  0  0  0  0  0  0  0
   17.4573   48.9552   38.0816 C   0  0  0  0  0  0  0  0  0  0  0  0
   17.9916   49.7156   38.0628 H   0  0  0  0  0  0  0  0  0  0  0  0
   17.7446   47.9023   37.2531 C   0  0  0  0  0  0  0  0  0  0  0  0
   18.4762   47.9425   36.6800 H   0  0  0  0  0  0  0  0  0  0  0  0
   15.2064   49.8642   40.7619 C   0  0  0  0  0  0  0  0  0  0  0  0
   15.2238   50.6458   41.3194 H   0  0  0  0  0  0  0  0  0  0  0  0
   15.3639   49.0844   41.2990 H   0  0  0  0  0  0  0  0  0  0  0  0
   14.3469   49.7932   40.3393 H   0  0  0  0  0  0  0  0  0  0  0  0
   18.4658   45.5325   31.6456 H   0  0  0  0  0  0  0  0  0  0  0  0
   17.8268   46.2426   32.7500 H   0  0  0  0  0  0  0  0  0  0  0  0
   16.7108   42.3368   37.9013 N   0  0  0  0  0  0  0  0  0  0  0  0
   17.2458   45.6626   36.4407 N   0  0  0  0  0  0  0  0  0  0  0  0
   17.6068   45.8753   35.1579 N   0  0  0  0  0  0  0  0  0  0  0  0
   18.1998   45.5681   32.4738 N   0  0  0  0  0  0  0  0  0  0  0  0
   17.0577   44.2510   39.0787 O   0  0  0  0  0  0  0  0  0  0  0  0
   18.6629   43.3985   32.8751 O   0  0  0  0  0  0  0  0  0  0  0  0
   16.2137   49.9674   39.7709 O   0  0  0  0  0  0  0  0  0  0  0  0
   17.7338   38.1452   51.1445 C   0  0  0  0  0  0  0  0  0  0  0  0
   17.0802   37.6010   51.6100 H   0  0  0  0  0  0  0  0  0  0  0  0
   17.2665   38.9146   50.7840 H   0  0  0  0  0  0  0  0  0  0  0  0
   17.6285   37.2060   48.9717 O   0  0  0  0  0  0  0  0  0  0  0  0
   21.0861   27.2362   46.8118 C   0  0  0  0  0  0  0  0  0  0  0  0
   22.1655   27.1769   45.9477 C   0  0  0  0  0  0  0  0  0  0  0  0
   22.6998   26.4165   45.9290 H   0  0  0  0  0  0  0  0  0  0  0  0
   19.9146   26.2679   48.6281 C   0  0  0  0  0  0  0  0  0  0  0  0
   19.9320   25.4863   49.1856 H   0  0  0  0  0  0  0  0  0  0  0  0
   20.0721   27.0477   49.1652 H   0  0  0  0  0  0  0  0  0  0  0  0
   19.0551   26.3389   48.2055 H   0  0  0  0  0  0  0  0  0  0  0  0
   20.9219   26.1647   47.6371 O   0  0  0  0  0  0  0  0  0  0  0  0
   20.9792   34.5206   46.9258 C   0  0  0  0  0  0  0  0  0  0  0  0
   22.3424   35.9939   46.8022 H   0  0  0  0  0  0  0  0  0  0  0  0
   21.1905   34.4300   44.4563 C   0  0  0  0  0  0  0  0  0  0  0  0
   20.2936   34.2207   44.1528 H   0  0  0  0  0  0  0  0  0  0  0  0
   21.2564   35.3931   44.5524 H   0  0  0  0  0  0  0  0  0  0  0  0
   21.6527   32.4515   45.8791 C   0  0  0  0  0  0  0  0  0  0  0  0
   21.8645   31.8056   44.5740 C   0  0  0  0  0  0  0  0  0  0  0  0
   22.1944   32.4756   43.4306 C   0  0  0  0  0  0  0  0  0  0  0  0
   22.1895   33.9642   43.4144 C   0  0  0  0  0  0  0  0  0  0  0  0
   23.0742   34.3037   43.6227 H   0  0  0  0  0  0  0  0  0  0  0  0
   21.9339   34.2885   42.5371 H   0  0  0  0  0  0  0  0  0  0  0  0
   22.4771   31.4765   42.4983 C   0  0  0  0  0  0  0  0  0  0  0  0
   22.9481   31.6501   41.1061 C   0  0  0  0  0  0  0  0  0  0  0  0
   21.6479   29.3521   45.1421 C   0  0  0  0  0  0  0  0  0  0  0  0
   20.5489   29.3999   45.9698 C   0  0  0  0  0  0  0  0  0  0  0  0
   19.9946   30.1469   45.9636 H   0  0  0  0  0  0  0  0  0  0  0  0
   20.2697   28.3409   46.8067 C   0  0  0  0  0  0  0  0  0  0  0  0
   22.4528   28.2298   45.1193 C   0  0  0  0  0  0  0  0  0  0  0  0
   23.1844   28.1896   44.5461 H   0  0  0  0  0  0  0  0  0  0  0  0
   23.1740   30.5996   39.5118 H   0  0  0  0  0  0  0  0  0  0  0  0
   22.5350   29.8895   40.6162 H   0  0  0  0  0  0  0  0  0  0  0  0
   21.4190   33.7953   45.7674 N   0  0  0  0  0  0  0  0  0  0  0  0
   21.9540   30.4695   44.3069 N   0  0  0  0  0  0  0  0  0  0  0  0
   22.3150   30.2568   43.0240 N   0  0  0  0  0  0  0  0  0  0  0  0
   22.9080   30.5640   40.3399 N   0  0  0  0  0  0  0  0  0  0  0  0
   21.7659   31.8811   46.9449 O   0  0  0  0  0  0  0  0  0  0  0  0
   23.3711   32.7336   40.7413 O   0  0  0  0  0  0  0  0  0  0  0  0
   20.4006   37.0355   51.2750 C   0  0  0  0  0  0  0  0  0  0  0  0
   21.0948   37.6522   50.9917 H   0  0  0  0  0  0  0  0  0  0  0  0
   20.8315   36.2029   51.5234 H   0  0  0  0  0  0  0  0  0  0  0  0
   19.7330   37.5913   52.4586 C   0  0  0  0  0  0  0  0  0  0  0  0
   19.2935   36.8701   52.9378 H   0  0  0  0  0  0  0  0  0  0  0  0
   20.4030   37.9705   53.0479 H   0  0  0  0  0  0  0  0  0  0  0  0
   18.7365   38.6280   52.1387 C   0  0  0  0  0  0  0  0  0  0  0  0
   18.2789   38.8938   52.9519 H   0  0  0  0  0  0  0  0  0  0  0  0
   19.1901   39.4087   51.7830 H   0  0  0  0  0  0  0  0  0  0  0  0
   18.2833   37.3475   50.0007 C   0  0  0  0  0  0  0  0  0  0  0  0
   21.1200   36.4461   48.3351 C   0  0  0  0  0  0  0  0  0  0  0  0
   21.5319   37.2494   48.5610 H   0  0  0  0  0  0  0  0  0  0  0  0
   20.0328   36.0043   49.0577 C   0  0  0  0  0  0  0  0  0  0  0  0
   19.4451   34.8050   48.7267 C   0  0  0  0  0  0  0  0  0  0  0  0
   18.7299   34.4878   49.2297 H   0  0  0  0  0  0  0  0  0  0  0  0
   19.9075   34.0726   47.6591 C   0  0  0  0  0  0  0  0  0  0  0  0
   19.4932   33.2711   47.4330 H   0  0  0  0  0  0  0  0  0  0  0  0
   21.5993   35.6997   47.2781 C   0  0  0  0  0  0  0  0  0  0  0  0
   19.5293   28.3737   47.3670 H   0  0  0  0  0  0  0  0  0  0  0  0
   19.5032   36.7826   50.1412 N   0  0  0  0  0  0  0  0  0  0  0  0
   17.7338   51.9874   51.1445 C   0  0  0  0  0  0  0  0  0  0  0  0
   17.0802   51.4432   51.6100 H   0  0  0  0  0  0  0  0  0  0  0  0
   17.2665   52.7568   50.7840 H   0  0  0  0  0  0  0  0  0  0  0  0
   17.6285   51.0482   48.9717 O   0  0  0  0  0  0  0  0  0  0  0  0
   21.0861   41.0784   46.8118 C   0  0  0  0  0  0  0  0  0  0  0  0
   22.1655   41.0191   45.9477 C   0  0  0  0  0  0  0  0  0  0  0  0
   22.6998   40.2587   45.9290 H   0  0  0  0  0  0  0  0  0  0  0  0
   19.9146   40.1101   48.6281 C   0  0  0  0  0  0  0  0  0  0  0  0
   19.9320   39.3285   49.1856 H   0  0  0  0  0  0  0  0  0  0  0  0
   20.0721   40.8899   49.1652 H   0  0  0  0  0  0  0  0  0  0  0  0
   19.0551   40.1811   48.2055 H   0  0  0  0  0  0  0  0  0  0  0  0
   20.9219   40.0069   47.6371 O   0  0  0  0  0  0  0  0  0  0  0  0
   20.9792   48.3628   46.9258 C   0  0  0  0  0  0  0  0  0  0  0  0
   22.3424   49.8361   46.8022 H   0  0  0  0  0  0  0  0  0  0  0  0
   21.1905   48.2722   44.4563 C   0  0  0  0  0  0  0  0  0  0  0  0
   20.2936   48.0629   44.1528 H   0  0  0  0  0  0  0  0  0  0  0  0
   21.2564   49.2353   44.5524 H   0  0  0  0  0  0  0  0  0  0  0  0
   21.6527   46.2937   45.8791 C   0  0  0  0  0  0  0  0  0  0  0  0
   21.8645   45.6478   44.5740 C   0  0  0  0  0  0  0  0  0  0  0  0
   22.1944   46.3178   43.4306 C   0  0  0  0  0  0  0  0  0  0  0  0
   22.1895   47.8064   43.4144 C   0  0  0  0  0  0  0  0  0  0  0  0
   23.0742   48.1459   43.6227 H   0  0  0  0  0  0  0  0  0  0  0  0
   21.9339   48.1307   42.5371 H   0  0  0  0  0  0  0  0  0  0  0  0
   22.4771   45.3187   42.4983 C   0  0  0  0  0  0  0  0  0  0  0  0
   22.9481   45.4923   41.1061 C   0  0  0  0  0  0  0  0  0  0  0  0
   21.6479   43.1943   45.1421 C   0  0  0  0  0  0  0  0  0  0  0  0
   20.5489   43.2421   45.9698 C   0  0  0  0  0  0  0  0  0  0  0  0
   19.9946   43.9891   45.9636 H   0  0  0  0  0  0  0  0  0  0  0  0
   20.2697   42.1831   46.8067 C   0  0  0  0  0  0  0  0  0  0  0  0
   22.4528   42.0720   45.1193 C   0  0  0  0  0  0  0  0  0  0  0  0
   23.1844   42.0318   44.5461 H   0  0  0  0  0  0  0  0  0  0  0  0
   23.1740   44.4418   39.5118 H   0  0  0  0  0  0  0  0  0  0  0  0
   22.5350   43.7317   40.6162 H   0  0  0  0  0  0  0  0  0  0  0  0
   21.4190   47.6375   45.7674 N   0  0  0  0  0  0  0  0  0  0  0  0
   21.9540   44.3117   44.3069 N   0  0  0  0  0  0  0  0  0  0  0  0
   22.3150   44.0990   43.0240 N   0  0  0  0  0  0  0  0  0  0  0  0
   22.9080   44.4062   40.3399 N   0  0  0  0  0  0  0  0  0  0  0  0
   21.7659   45.7233   46.9449 O   0  0  0  0  0  0  0  0  0  0  0  0
   23.3711   46.5758   40.7413 O   0  0  0  0  0  0  0  0  0  0  0  0
   20.4006   50.8777   51.2750 C   0  0  0  0  0  0  0  0  0  0  0  0
   21.0948   51.4944   50.9917 H   0  0  0  0  0  0  0  0  0  0  0  0
   20.8315   50.0451   51.5234 H   0  0  0  0  0  0  0  0  0  0  0  0
   19.7330   51.4335   52.4586 C   0  0  0  0  0  0  0  0  0  0  0  0
   19.2935   50.7123   52.9378 H   0  0  0  0  0  0  0  0  0  0  0  0
   20.4030   51.8127   53.0479 H   0  0  0  0  0  0  0  0  0  0  0  0
   18.7365   52.4702   52.1387 C   0  0  0  0  0  0  0  0  0  0  0  0
   18.2789   52.7360   52.9519 H   0  0  0  0  0  0  0  0  0  0  0  0
   19.1901   53.2509   51.7830 H   0  0  0  0  0  0  0  0  0  0  0  0
   18.2833   51.1897   50.0007 C   0  0  0  0  0  0  0  0  0  0  0  0
   21.1200   50.2883   48.3351 C   0  0  0  0  0  0  0  0  0  0  0  0
   21.5319   51.0916   48.5610 H   0  0  0  0  0  0  0  0  0  0  0  0
   20.0328   49.8465   49.0577 C   0  0  0  0  0  0  0  0  0  0  0  0
   19.4451   48.6472   48.7267 C   0  0  0  0  0  0  0  0  0  0  0  0
   18.7299   48.3300   49.2297 H   0  0  0  0  0  0  0  0  0  0  0  0
   19.9075   47.9148   47.6591 C   0  0  0  0  0  0  0  0  0  0  0  0
   19.4932   47.1133   47.4330 H   0  0  0  0  0  0  0  0  0  0  0  0
   21.5993   49.5419   47.2781 C   0  0  0  0  0  0  0  0  0  0  0  0
   19.5293   42.2159   47.3670 H   0  0  0  0  0  0  0  0  0  0  0  0
   19.5032   50.6248   50.1412 N   0  0  0  0  0  0  0  0  0  0  0  0
   15.6562   32.1755   43.1191 C   0  0  0  0  0  0  0  0  0  0  0  0
   14.9620   31.5588   43.4024 H   0  0  0  0  0  0  0  0  0  0  0  0
   15.2253   33.0081   42.8707 H   0  0  0  0  0  0  0  0  0  0  0  0
   16.3238   31.6197   41.9355 C   0  0  0  0  0  0  0  0  0  0  0  0
   16.7633   32.3409   41.4563 H   0  0  0  0  0  0  0  0  0  0  0  0
   15.6538   31.2405   41.3462 H   0  0  0  0  0  0  0  0  0  0  0  0
   17.3203   30.5830   42.2554 C   0  0  0  0  0  0  0  0  0  0  0  0
   17.7779   30.3172   41.4422 H   0  0  0  0  0  0  0  0  0  0  0  0
   16.8667   29.8023   42.6111 H   0  0  0  0  0  0  0  0  0  0  0  0
   17.7736   31.8635   44.3934 C   0  0  0  0  0  0  0  0  0  0  0  0
   14.9368   32.7649   46.0590 C   0  0  0  0  0  0  0  0  0  0  0  0
   14.5250   31.9616   45.8331 H   0  0  0  0  0  0  0  0  0  0  0  0
   16.0240   33.2067   45.3364 C   0  0  0  0  0  0  0  0  0  0  0  0
   16.6117   34.4060   45.6674 C   0  0  0  0  0  0  0  0  0  0  0  0
   17.3269   34.7232   45.1644 H   0  0  0  0  0  0  0  0  0  0  0  0
   16.1493   35.1384   46.7350 C   0  0  0  0  0  0  0  0  0  0  0  0
   16.5636   35.9399   46.9611 H   0  0  0  0  0  0  0  0  0  0  0  0
   14.4575   33.5113   47.1160 C   0  0  0  0  0  0  0  0  0  0  0  0
   16.5275   40.8373   47.0271 H   0  0  0  0  0  0  0  0  0  0  0  0
   16.5536   32.4284   44.2529 N   0  0  0  0  0  0  0  0  0  0  0  0
   15.0776   34.6904   47.4683 C   0  0  0  0  0  0  0  0  0  0  0  0
   13.7145   33.2171   47.5919 H   0  0  0  0  0  0  0  0  0  0  0  0
   14.8663   34.7810   49.9378 C   0  0  0  0  0  0  0  0  0  0  0  0
   15.7632   34.9903   50.2413 H   0  0  0  0  0  0  0  0  0  0  0  0
   14.8004   33.8179   49.8417 H   0  0  0  0  0  0  0  0  0  0  0  0
   14.4041   36.7595   48.5149 C   0  0  0  0  0  0  0  0  0  0  0  0
   14.1923   37.4054   49.8201 C   0  0  0  0  0  0  0  0  0  0  0  0
   13.8624   36.7354   50.9635 C   0  0  0  0  0  0  0  0  0  0  0  0
   13.8673   35.2468   50.9797 C   0  0  0  0  0  0  0  0  0  0  0  0
   12.9826   34.9073   50.7714 H   0  0  0  0  0  0  0  0  0  0  0  0
   14.1229   34.9225   51.8570 H   0  0  0  0  0  0  0  0  0  0  0  0
   13.5797   37.7345   51.8958 C   0  0  0  0  0  0  0  0  0  0  0  0
   13.1087   37.5609   53.2880 C   0  0  0  0  0  0  0  0  0  0  0  0
   14.4089   39.8589   49.2520 C   0  0  0  0  0  0  0  0  0  0  0  0
   15.5079   39.8111   48.4243 C   0  0  0  0  0  0  0  0  0  0  0  0
   16.0622   39.0641   48.4305 H   0  0  0  0  0  0  0  0  0  0  0  0
   15.7871   40.8701   47.5874 C   0  0  0  0  0  0  0  0  0  0  0  0
   13.6040   40.9812   49.2748 C   0  0  0  0  0  0  0  0  0  0  0  0
   12.8724   41.0214   49.8479 H   0  0  0  0  0  0  0  0  0  0  0  0
   12.8828   38.6114   54.8823 H   0  0  0  0  0  0  0  0  0  0  0  0
   13.5218   39.3215   53.7779 H   0  0  0  0  0  0  0  0  0  0  0  0
   14.6378   35.4157   48.6266 N   0  0  0  0  0  0  0  0  0  0  0  0
   14.1028   38.7415   50.0872 N   0  0  0  0  0  0  0  0  0  0  0  0
   13.7418   38.9542   51.3701 N   0  0  0  0  0  0  0  0  0  0  0  0
   13.1488   38.6470   54.0541 N   0  0  0  0  0  0  0  0  0  0  0  0
   14.2909   37.3299   47.4492 O   0  0  0  0  0  0  0  0  0  0  0  0
   12.6857   36.4774   53.6528 O   0  0  0  0  0  0  0  0  0  0  0  0
   16.1422   42.9431   45.7660 C   0  0  0  0  0  0  0  0  0  0  0  0
   16.1248   43.7247   45.2085 H   0  0  0  0  0  0  0  0  0  0  0  0
   15.9847   42.1633   45.2289 H   0  0  0  0  0  0  0  0  0  0  0  0
   17.0017   42.8721   46.1886 H   0  0  0  0  0  0  0  0  0  0  0  0
   15.1349   43.0463   46.7570 O   0  0  0  0  0  0  0  0  0  0  0  0
   14.9707   41.9748   47.5823 C   0  0  0  0  0  0  0  0  0  0  0  0
   13.8913   42.0341   48.4464 C   0  0  0  0  0  0  0  0  0  0  0  0
   13.3571   42.7945   48.4651 H   0  0  0  0  0  0  0  0  0  0  0  0
   18.3230   31.0658   43.2496 C   0  0  0  0  0  0  0  0  0  0  0  0
   18.9766   31.6100   42.7841 H   0  0  0  0  0  0  0  0  0  0  0  0
   18.7903   30.2964   43.6101 H   0  0  0  0  0  0  0  0  0  0  0  0
   18.4283   32.0050   45.4224 O   0  0  0  0  0  0  0  0  0  0  0  0
   26.6814   32.1755   27.3867 C   0  0  0  0  0  0  0  0  0  0  0  0
   25.9872   31.5588   27.6701 H   0  0  0  0  0  0  0  0  0  0  0  0
   26.2505   33.0081   27.1383 H   0  0  0  0  0  0  0  0  0  0  0  0
   27.3490   31.6197   26.2032 C   0  0  0  0  0  0  0  0  0  0  0  0
   27.7885   32.3409   25.7240 H   0  0  0  0  0  0  0  0  0  0  0  0
   26.6790   31.2405   25.6138 H   0  0  0  0  0  0  0  0  0  0  0  0
   28.3455   30.5830   26.5230 C   0  0  0  0  0  0  0  0  0  0  0  0
   28.8031   30.3172   25.7098 H   0  0  0  0  0  0  0  0  0  0  0  0
   27.8919   29.8023   26.8787 H   0  0  0  0  0  0  0  0  0  0  0  0
   28.7988   31.8635   28.6610 C   0  0  0  0  0  0  0  0  0  0  0  0
   25.9620   32.7649   30.3266 C   0  0  0  0  0  0  0  0  0  0  0  0
   25.5502   31.9616   30.1007 H   0  0  0  0  0  0  0  0  0  0  0  0
   27.0492   33.2067   29.6040 C   0  0  0  0  0  0  0  0  0  0  0  0
   27.6369   34.4060   29.9350 C   0  0  0  0  0  0  0  0  0  0  0  0
   28.3521   34.7232   29.4321 H   0  0  0  0  0  0  0  0  0  0  0  0
   27.1745   35.1384   31.0026 C   0  0  0  0  0  0  0  0  0  0  0  0
   27.5888   35.9399   31.2287 H   0  0  0  0  0  0  0  0  0  0  0  0
   25.4827   33.5113   31.3837 C   0  0  0  0  0  0  0  0  0  0  0  0
   27.5527   40.8373   31.2948 H   0  0  0  0  0  0  0  0  0  0  0  0
   27.5788   32.4284   28.5205 N   0  0  0  0  0  0  0  0  0  0  0  0
   26.1028   34.6904   31.7359 C   0  0  0  0  0  0  0  0  0  0  0  0
   24.7397   33.2171   31.8596 H   0  0  0  0  0  0  0  0  0  0  0  0
   25.8915   34.7810   34.2054 C   0  0  0  0  0  0  0  0  0  0  0  0
   26.7884   34.9903   34.5089 H   0  0  0  0  0  0  0  0  0  0  0  0
   25.8256   33.8179   34.1093 H   0  0  0  0  0  0  0  0  0  0  0  0
   25.4293   36.7595   32.7826 C   0  0  0  0  0  0  0  0  0  0  0  0
   25.2175   37.4054   34.0878 C   0  0  0  0  0  0  0  0  0  0  0  0
   24.8876   36.7354   35.2312 C   0  0  0  0  0  0  0  0  0  0  0  0
   24.8925   35.2468   35.2474 C   0  0  0  0  0  0  0  0  0  0  0  0
   24.0078   34.9073   35.0391 H   0  0  0  0  0  0  0  0  0  0  0  0
   25.1481   34.9225   36.1246 H   0  0  0  0  0  0  0  0  0  0  0  0
   24.6049   37.7345   36.1635 C   0  0  0  0  0  0  0  0  0  0  0  0
   24.1339   37.5609   37.5556 C   0  0  0  0  0  0  0  0  0  0  0  0
   25.4341   39.8589   33.5197 C   0  0  0  0  0  0  0  0  0  0  0  0
   26.5331   39.8111   32.6920 C   0  0  0  0  0  0  0  0  0  0  0  0
   27.0874   39.0641   32.6981 H   0  0  0  0  0  0  0  0  0  0  0  0
   26.8123   40.8701   31.8550 C   0  0  0  0  0  0  0  0  0  0  0  0
   24.6292   40.9812   33.5425 C   0  0  0  0  0  0  0  0  0  0  0  0
   23.8976   41.0214   34.1156 H   0  0  0  0  0  0  0  0  0  0  0  0
   23.9080   38.6114   39.1500 H   0  0  0  0  0  0  0  0  0  0  0  0
   24.5470   39.3215   38.0455 H   0  0  0  0  0  0  0  0  0  0  0  0
   25.6630   35.4157   32.8943 N   0  0  0  0  0  0  0  0  0  0  0  0
   25.1280   38.7415   34.3549 N   0  0  0  0  0  0  0  0  0  0  0  0
   24.7670   38.9542   35.6377 N   0  0  0  0  0  0  0  0  0  0  0  0
   24.1740   38.6470   38.3218 N   0  0  0  0  0  0  0  0  0  0  0  0
   25.3161   37.3299   31.7169 O   0  0  0  0  0  0  0  0  0  0  0  0
   23.7109   36.4774   37.9205 O   0  0  0  0  0  0  0  0  0  0  0  0
   27.1674   42.9431   30.0337 C   0  0  0  0  0  0  0  0  0  0  0  0
   27.1500   43.7247   29.4761 H   0  0  0  0  0  0  0  0  0  0  0  0
   27.0099   42.1633   29.4966 H   0  0  0  0  0  0  0  0  0  0  0  0
   28.0269   42.8721   30.4563 H   0  0  0  0  0  0  0  0  0  0  0  0
   26.1601   43.0463   31.0247 O   0  0  0  0  0  0  0  0  0  0  0  0
   25.9959   41.9748   31.8500 C   0  0  0  0  0  0  0  0  0  0  0  0
   24.9165   42.0341   32.7140 C   0  0  0  0  0  0  0  0  0  0  0  0
   24.3823   42.7945   32.7327 H   0  0  0  0  0  0  0  0  0  0  0  0
   29.3482   31.0658   27.5173 C   0  0  0  0  0  0  0  0  0  0  0  0
   30.0018   31.6100   27.0518 H   0  0  0  0  0  0  0  0  0  0  0  0
   29.8155   30.2964   27.8777 H   0  0  0  0  0  0  0  0  0  0  0  0
   29.4535   32.0050   29.6901 O   0  0  0  0  0  0  0  0  0  0  0  0
   18.5382   38.1452   35.4121 C   0  0  0  0  0  0  0  0  0  0  0  0
   17.8846   37.6010   35.8776 H   0  0  0  0  0  0  0  0  0  0  0  0
   18.0709   38.9146   35.0517 H   0  0  0  0  0  0  0  0  0  0  0  0
   18.4329   37.2060   33.2393 O   0  0  0  0  0  0  0  0  0  0  0  0
   21.8905   27.2362   31.0794 C   0  0  0  0  0  0  0  0  0  0  0  0
   22.9699   27.1769   30.2154 C   0  0  0  0  0  0  0  0  0  0  0  0
   23.5042   26.4165   30.1967 H   0  0  0  0  0  0  0  0  0  0  0  0
   20.7190   26.2679   32.8957 C   0  0  0  0  0  0  0  0  0  0  0  0
   20.7364   25.4863   33.4533 H   0  0  0  0  0  0  0  0  0  0  0  0
   20.8765   27.0477   33.4328 H   0  0  0  0  0  0  0  0  0  0  0  0
   19.8595   26.3389   32.4731 H   0  0  0  0  0  0  0  0  0  0  0  0
   21.7263   26.1647   31.9047 O   0  0  0  0  0  0  0  0  0  0  0  0
   21.7836   34.5206   31.1935 C   0  0  0  0  0  0  0  0  0  0  0  0
   23.1467   35.9939   31.0698 H   0  0  0  0  0  0  0  0  0  0  0  0
   21.9949   34.4300   28.7240 C   0  0  0  0  0  0  0  0  0  0  0  0
   21.0980   34.2207   28.4205 H   0  0  0  0  0  0  0  0  0  0  0  0
   22.0608   35.3931   28.8201 H   0  0  0  0  0  0  0  0  0  0  0  0
   22.4571   32.4515   30.1468 C   0  0  0  0  0  0  0  0  0  0  0  0
   22.6689   31.8056   28.8416 C   0  0  0  0  0  0  0  0  0  0  0  0
   22.9988   32.4756   27.6982 C   0  0  0  0  0  0  0  0  0  0  0  0
   22.9939   33.9642   27.6820 C   0  0  0  0  0  0  0  0  0  0  0  0
   23.8786   34.3037   27.8903 H   0  0  0  0  0  0  0  0  0  0  0  0
   22.7383   34.2885   26.8048 H   0  0  0  0  0  0  0  0  0  0  0  0
   23.2815   31.4765   26.7659 C   0  0  0  0  0  0  0  0  0  0  0  0
   23.7525   31.6501   25.3738 C   0  0  0  0  0  0  0  0  0  0  0  0
   22.4523   29.3521   29.4097 C   0  0  0  0  0  0  0  0  0  0  0  0
   21.3533   29.3999   30.2374 C   0  0  0  0  0  0  0  0  0  0  0  0
   20.7990   30.1469   30.2313 H   0  0  0  0  0  0  0  0  0  0  0  0
   21.0741   28.3409   31.0744 C   0  0  0  0  0  0  0  0  0  0  0  0
   23.2572   28.2298   29.3869 C   0  0  0  0  0  0  0  0  0  0  0  0
   23.9888   28.1896   28.8138 H   0  0  0  0  0  0  0  0  0  0  0  0
   23.9784   30.5996   23.7794 H   0  0  0  0  0  0  0  0  0  0  0  0
   23.3394   29.8895   24.8839 H   0  0  0  0  0  0  0  0  0  0  0  0
   22.2234   33.7953   30.0351 N   0  0  0  0  0  0  0  0  0  0  0  0
   22.7584   30.4695   28.5745 N   0  0  0  0  0  0  0  0  0  0  0  0
   23.1194   30.2568   27.2917 N   0  0  0  0  0  0  0  0  0  0  0  0
   23.7124   30.5640   24.6076 N   0  0  0  0  0  0  0  0  0  0  0  0
   22.5703   31.8811   31.2125 O   0  0  0  0  0  0  0  0  0  0  0  0
   24.1755   32.7336   25.0089 O   0  0  0  0  0  0  0  0  0  0  0  0
   21.2050   37.0355   35.5427 C   0  0  0  0  0  0  0  0  0  0  0  0
   21.8992   37.6522   35.2593 H   0  0  0  0  0  0  0  0  0  0  0  0
   21.6359   36.2029   35.7911 H   0  0  0  0  0  0  0  0  0  0  0  0
   20.5374   37.5913   36.7262 C   0  0  0  0  0  0  0  0  0  0  0  0
   20.0979   36.8701   37.2054 H   0  0  0  0  0  0  0  0  0  0  0  0
   21.2074   37.9705   37.3156 H   0  0  0  0  0  0  0  0  0  0  0  0
   19.5409   38.6280   36.4064 C   0  0  0  0  0  0  0  0  0  0  0  0
   19.0833   38.8938   37.2196 H   0  0  0  0  0  0  0  0  0  0  0  0
   19.9945   39.4087   36.0507 H   0  0  0  0  0  0  0  0  0  0  0  0
   19.0877   37.3475   34.2684 C   0  0  0  0  0  0  0  0  0  0  0  0
   21.9244   36.4461   32.6028 C   0  0  0  0  0  0  0  0  0  0  0  0
   22.3363   37.2494   32.8287 H   0  0  0  0  0  0  0  0  0  0  0  0
   20.8372   36.0043   33.3254 C   0  0  0  0  0  0  0  0  0  0  0  0
   20.2495   34.8050   32.9944 C   0  0  0  0  0  0  0  0  0  0  0  0
   19.5343   34.4878   33.4973 H   0  0  0  0  0  0  0  0  0  0  0  0
   20.7119   34.0726   31.9268 C   0  0  0  0  0  0  0  0  0  0  0  0
   20.2976   33.2711   31.7007 H   0  0  0  0  0  0  0  0  0  0  0  0
   22.4037   35.6997   31.5457 C   0  0  0  0  0  0  0  0  0  0  0  0
   20.3337   28.3737   31.6346 H   0  0  0  0  0  0  0  0  0  0  0  0
   20.3076   36.7826   34.4088 N   0  0  0  0  0  0  0  0  0  0  0  0
   18.5382   51.9874   35.4121 C   0  0  0  0  0  0  0  0  0  0  0  0
   17.8846   51.4432   35.8776 H   0  0  0  0  0  0  0  0  0  0  0  0
   18.0709   52.7568   35.0517 H   0  0  0  0  0  0  0  0  0  0  0  0
   18.4329   51.0482   33.2393 O   0  0  0  0  0  0  0  0  0  0  0  0
   21.8905   41.0784   31.0794 C   0  0  0  0  0  0  0  0  0  0  0  0
   22.9699   41.0191   30.2154 C   0  0  0  0  0  0  0  0  0  0  0  0
   23.5042   40.2587   30.1967 H   0  0  0  0  0  0  0  0  0  0  0  0
   20.7190   40.1101   32.8957 C   0  0  0  0  0  0  0  0  0  0  0  0
   20.7364   39.3285   33.4533 H   0  0  0  0  0  0  0  0  0  0  0  0
   20.8765   40.8899   33.4328 H   0  0  0  0  0  0  0  0  0  0  0  0
   19.8595   40.1811   32.4731 H   0  0  0  0  0  0  0  0  0  0  0  0
   21.7263   40.0069   31.9047 O   0  0  0  0  0  0  0  0  0  0  0  0
   21.7836   48.3628   31.1935 C   0  0  0  0  0  0  0  0  0  0  0  0
   23.1467   49.8361   31.0698 H   0  0  0  0  0  0  0  0  0  0  0  0
   21.9949   48.2722   28.7240 C   0  0  0  0  0  0  0  0  0  0  0  0
   21.0980   48.0629   28.4205 H   0  0  0  0  0  0  0  0  0  0  0  0
   22.0608   49.2353   28.8201 H   0  0  0  0  0  0  0  0  0  0  0  0
   22.4571   46.2937   30.1468 C   0  0  0  0  0  0  0  0  0  0  0  0
   22.6689   45.6478   28.8416 C   0  0  0  0  0  0  0  0  0  0  0  0
   22.9988   46.3178   27.6982 C   0  0  0  0  0  0  0  0  0  0  0  0
   22.9939   47.8064   27.6820 C   0  0  0  0  0  0  0  0  0  0  0  0
   23.8786   48.1459   27.8903 H   0  0  0  0  0  0  0  0  0  0  0  0
   22.7383   48.1307   26.8048 H   0  0  0  0  0  0  0  0  0  0  0  0
   23.2815   45.3187   26.7659 C   0  0  0  0  0  0  0  0  0  0  0  0
   23.7525   45.4923   25.3738 C   0  0  0  0  0  0  0  0  0  0  0  0
   22.4523   43.1943   29.4097 C   0  0  0  0  0  0  0  0  0  0  0  0
   21.3533   43.2421   30.2374 C   0  0  0  0  0  0  0  0  0  0  0  0
   20.7990   43.9891   30.2313 H   0  0  0  0  0  0  0  0  0  0  0  0
   21.0741   42.1831   31.0744 C   0  0  0  0  0  0  0  0  0  0  0  0
   23.2572   42.0720   29.3869 C   0  0  0  0  0  0  0  0  0  0  0  0
   23.9888   42.0318   28.8138 H   0  0  0  0  0  0  0  0  0  0  0  0
   23.9784   44.4418   23.7794 H   0  0  0  0  0  0  0  0  0  0  0  0
   23.3394   43.7317   24.8839 H   0  0  0  0  0  0  0  0  0  0  0  0
   22.2234   47.6375   30.0351 N   0  0  0  0  0  0  0  0  0  0  0  0
   22.7584   44.3117   28.5745 N   0  0  0  0  0  0  0  0  0  0  0  0
   23.1194   44.0990   27.2917 N   0  0  0  0  0  0  0  0  0  0  0  0
   23.7124   44.4062   24.6076 N   0  0  0  0  0  0  0  0  0  0  0  0
   22.5703   45.7233   31.2125 O   0  0  0  0  0  0  0  0  0  0  0  0
   24.1755   46.5758   25.0089 O   0  0  0  0  0  0  0  0  0  0  0  0
   21.2050   50.8777   35.5427 C   0  0  0  0  0  0  0  0  0  0  0  0
   21.8992   51.4944   35.2593 H   0  0  0  0  0  0  0  0  0  0  0  0
   21.6359   50.0451   35.7911 H   0  0  0  0  0  0  0  0  0  0  0  0
   20.5374   51.4335   36.7262 C   0  0  0  0  0  0  0  0  0  0  0  0
   20.0979   50.7123   37.2054 H   0  0  0  0  0  0  0  0  0  0  0  0
   21.2074   51.8127   37.3156 H   0  0  0  0  0  0  0  0  0  0  0  0
   19.5409   52.4702   36.4064 C   0  0  0  0  0  0  0  0  0  0  0  0
   19.0833   52.7360   37.2196 H   0  0  0  0  0  0  0  0  0  0  0  0
   19.9945   53.2509   36.0507 H   0  0  0  0  0  0  0  0  0  0  0  0
   19.0877   51.1897   34.2684 C   0  0  0  0  0  0  0  0  0  0  0  0
   21.9244   50.2883   32.6028 C   0  0  0  0  0  0  0  0  0  0  0  0
   22.3363   51.0916   32.8287 H   0  0  0  0  0  0  0  0  0  0  0  0
   20.8372   49.8465   33.3254 C   0  0  0  0  0  0  0  0  0  0  0  0
   20.2495   48.6472   32.9944 C   0  0  0  0  0  0  0  0  0  0  0  0
   19.5343   48.3300   33.4973 H   0  0  0  0  0  0  0  0  0  0  0  0
   20.7119   47.9148   31.9268 C   0  0  0  0  0  0  0  0  0  0  0  0
   20.2976   47.1133   31.7007 H   0  0  0  0  0  0  0  0  0  0  0  0
   22.4037   49.5419   31.5457 C   0  0  0  0  0  0  0  0  0  0  0  0
   20.3337   42.2159   31.6346 H   0  0  0  0  0  0  0  0  0  0  0  0
   20.3076   50.6248   34.4088 N   0  0  0  0  0  0  0  0  0  0  0  0
   15.6924   25.2544   43.4089 C   0  0  0  0  0  0  0  0  0  0  0  0
   16.3866   24.6377   43.1255 H   0  0  0  0  0  0  0  0  0  0  0  0
   16.1233   26.0870   43.6573 H   0  0  0  0  0  0  0  0  0  0  0  0
   15.0248   24.6986   44.5924 C   0  0  0  0  0  0  0  0  0  0  0  0
   14.5853   25.4198   45.0716 H   0  0  0  0  0  0  0  0  0  0  0  0
   15.6948   24.3194   45.1817 H   0  0  0  0  0  0  0  0  0  0  0  0
   14.0283   23.6619   44.2726 C   0  0  0  0  0  0  0  0  0  0  0  0
   13.5707   23.3961   45.0858 H   0  0  0  0  0  0  0  0  0  0  0  0
   14.4819   22.8812   43.9169 H   0  0  0  0  0  0  0  0  0  0  0  0
   13.0256   24.1447   43.2783 C   0  0  0  0  0  0  0  0  0  0  0  0
   12.3720   24.6889   43.7438 H   0  0  0  0  0  0  0  0  0  0  0  0
   12.5583   23.3753   42.9178 H   0  0  0  0  0  0  0  0  0  0  0  0
   13.5751   24.9424   42.1345 C   0  0  0  0  0  0  0  0  0  0  0  0
   16.4118   25.8438   40.4690 C   0  0  0  0  0  0  0  0  0  0  0  0
   16.8237   25.0405   40.6949 H   0  0  0  0  0  0  0  0  0  0  0  0
   15.3246   26.2856   41.1915 C   0  0  0  0  0  0  0  0  0  0  0  0
   14.7369   27.4849   40.8605 C   0  0  0  0  0  0  0  0  0  0  0  0
   16.8911   26.5902   39.4119 C   0  0  0  0  0  0  0  0  0  0  0  0
   17.6342   26.2960   38.9360 H   0  0  0  0  0  0  0  0  0  0  0  0
   16.5482   26.8968   36.6863 H   0  0  0  0  0  0  0  0  0  0  0  0
   14.7950   25.5073   42.2750 N   0  0  0  0  0  0  0  0  0  0  0  0
   12.9203   25.0839   41.1055 O   0  0  0  0  0  0  0  0  0  0  0  0
   14.0217   27.8021   41.3635 H   0  0  0  0  0  0  0  0  0  0  0  0
   15.1993   28.2173   39.7929 C   0  0  0  0  0  0  0  0  0  0  0  0
   14.7850   29.0188   39.5669 H   0  0  0  0  0  0  0  0  0  0  0  0
   16.2710   27.7693   39.0596 C   0  0  0  0  0  0  0  0  0  0  0  0
   16.4823   27.8599   36.5901 C   0  0  0  0  0  0  0  0  0  0  0  0
   15.5854   28.0692   36.2867 H   0  0  0  0  0  0  0  0  0  0  0  0
   16.9445   29.8384   38.0130 C   0  0  0  0  0  0  0  0  0  0  0  0
   17.1563   30.4843   36.7078 C   0  0  0  0  0  0  0  0  0  0  0  0
   17.4862   29.8143   35.5644 C   0  0  0  0  0  0  0  0  0  0  0  0
   17.4813   28.3257   35.5482 C   0  0  0  0  0  0  0  0  0  0  0  0
   18.3660   27.9862   35.7565 H   0  0  0  0  0  0  0  0  0  0  0  0
   17.2257   28.0014   34.6710 H   0  0  0  0  0  0  0  0  0  0  0  0
   17.7689   30.8134   34.6321 C   0  0  0  0  0  0  0  0  0  0  0  0
   18.2399   30.6398   33.2399 C   0  0  0  0  0  0  0  0  0  0  0  0
   16.9397   32.9378   37.2759 C   0  0  0  0  0  0  0  0  0  0  0  0
   15.8407   32.8900   38.1036 C   0  0  0  0  0  0  0  0  0  0  0  0
   15.2864   32.1430   38.0975 H   0  0  0  0  0  0  0  0  0  0  0  0
   15.5615   33.9490   38.9406 C   0  0  0  0  0  0  0  0  0  0  0  0
   14.8211   33.9162   39.5008 H   0  0  0  0  0  0  0  0  0  0  0  0
   16.3779   35.0537   38.9456 C   0  0  0  0  0  0  0  0  0  0  0  0
   17.4573   35.1130   38.0816 C   0  0  0  0  0  0  0  0  0  0  0  0
   17.9916   35.8734   38.0628 H   0  0  0  0  0  0  0  0  0  0  0  0
   17.7446   34.0601   37.2531 C   0  0  0  0  0  0  0  0  0  0  0  0
   18.4762   34.1003   36.6800 H   0  0  0  0  0  0  0  0  0  0  0  0
   15.2064   36.0220   40.7619 C   0  0  0  0  0  0  0  0  0  0  0  0
   15.2238   36.8036   41.3194 H   0  0  0  0  0  0  0  0  0  0  0  0
   15.3639   35.2422   41.2990 H   0  0  0  0  0  0  0  0  0  0  0  0
   14.3469   35.9510   40.3393 H   0  0  0  0  0  0  0  0  0  0  0  0
   18.4658   31.6903   31.6456 H   0  0  0  0  0  0  0  0  0  0  0  0
   17.8268   32.4004   32.7500 H   0  0  0  0  0  0  0  0  0  0  0  0
   16.7108   28.4946   37.9013 N   0  0  0  0  0  0  0  0  0  0  0  0
   17.2458   31.8204   36.4407 N   0  0  0  0  0  0  0  0  0  0  0  0
   17.6068   32.0331   35.1579 N   0  0  0  0  0  0  0  0  0  0  0  0
   18.1998   31.7259   32.4738 N   0  0  0  0  0  0  0  0  0  0  0  0
   17.0577   30.4088   39.0787 O   0  0  0  0  0  0  0  0  0  0  0  0
   18.6629   29.5563   32.8751 O   0  0  0  0  0  0  0  0  0  0  0  0
   16.2137   36.1252   39.7709 O   0  0  0  0  0  0  0  0  0  0  0  0
   22.8395   27.5667   37.2983 H   0  0  0  0  0  0  0  0  0  0  0  0
   21.6619   27.1515   38.8688 C   0  0  0  0  0  0  0  0  0  0  0  0
   22.0762   26.3500   39.0949 H   0  0  0  0  0  0  0  0  0  0  0  0
   20.5902   27.5995   39.6021 C   0  0  0  0  0  0  0  0  0  0  0  0
   20.3789   27.5089   42.0716 C   0  0  0  0  0  0  0  0  0  0  0  0
   21.2758   27.2996   42.3751 H   0  0  0  0  0  0  0  0  0  0  0  0
   19.9167   25.5304   40.6488 C   0  0  0  0  0  0  0  0  0  0  0  0
   19.7049   24.8845   41.9539 C   0  0  0  0  0  0  0  0  0  0  0  0
   19.3750   25.5545   43.0974 C   0  0  0  0  0  0  0  0  0  0  0  0
   19.3799   27.0431   43.1136 C   0  0  0  0  0  0  0  0  0  0  0  0
   18.4952   27.3826   42.9053 H   0  0  0  0  0  0  0  0  0  0  0  0
   19.6355   27.3674   43.9908 H   0  0  0  0  0  0  0  0  0  0  0  0
   19.0923   24.5554   44.0297 C   0  0  0  0  0  0  0  0  0  0  0  0
   18.6213   24.7290   45.4218 C   0  0  0  0  0  0  0  0  0  0  0  0
   19.9215   22.4310   41.3858 C   0  0  0  0  0  0  0  0  0  0  0  0
   21.0205   22.4788   40.5582 C   0  0  0  0  0  0  0  0  0  0  0  0
   21.5748   23.2258   40.5643 H   0  0  0  0  0  0  0  0  0  0  0  0
   21.2997   21.4198   39.7212 C   0  0  0  0  0  0  0  0  0  0  0  0
   22.0401   21.4526   39.1610 H   0  0  0  0  0  0  0  0  0  0  0  0
   20.4833   20.3151   39.7162 C   0  0  0  0  0  0  0  0  0  0  0  0
   19.4039   20.2558   40.5802 C   0  0  0  0  0  0  0  0  0  0  0  0
   18.8697   19.4954   40.5989 H   0  0  0  0  0  0  0  0  0  0  0  0
   19.1166   21.3087   41.4086 C   0  0  0  0  0  0  0  0  0  0  0  0
   18.3850   21.2685   41.9818 H   0  0  0  0  0  0  0  0  0  0  0  0
   21.6548   19.3468   37.8999 C   0  0  0  0  0  0  0  0  0  0  0  0
   21.6374   18.5652   37.3423 H   0  0  0  0  0  0  0  0  0  0  0  0
   21.4973   20.1266   37.3628 H   0  0  0  0  0  0  0  0  0  0  0  0
   22.5143   19.4178   38.3224 H   0  0  0  0  0  0  0  0  0  0  0  0
   18.3954   23.6785   47.0161 H   0  0  0  0  0  0  0  0  0  0  0  0
   19.0344   22.9684   45.9117 H   0  0  0  0  0  0  0  0  0  0  0  0
   20.1504   26.8742   40.7605 N   0  0  0  0  0  0  0  0  0  0  0  0
   19.6154   23.5484   42.2211 N   0  0  0  0  0  0  0  0  0  0  0  0
   19.2544   23.3357   43.5039 N   0  0  0  0  0  0  0  0  0  0  0  0
   18.6614   23.6429   46.1880 N   0  0  0  0  0  0  0  0  0  0  0  0
   19.8035   24.9600   39.5831 O   0  0  0  0  0  0  0  0  0  0  0  0
   18.1983   25.8125   45.7866 O   0  0  0  0  0  0  0  0  0  0  0  0
   20.6475   19.2436   38.8908 O   0  0  0  0  0  0  0  0  0  0  0  0
   21.1688   30.1144   35.2529 C   0  0  0  0  0  0  0  0  0  0  0  0
   20.4746   30.7311   35.5362 H   0  0  0  0  0  0  0  0  0  0  0  0
   20.7379   29.2818   35.0045 H   0  0  0  0  0  0  0  0  0  0  0  0
   21.8364   30.6702   34.0693 C   0  0  0  0  0  0  0  0  0  0  0  0
   22.2759   29.9490   33.5901 H   0  0  0  0  0  0  0  0  0  0  0  0
   21.1664   31.0494   33.4800 H   0  0  0  0  0  0  0  0  0  0  0  0
   22.8329   31.7069   34.3892 C   0  0  0  0  0  0  0  0  0  0  0  0
   23.2905   31.9727   33.5760 H   0  0  0  0  0  0  0  0  0  0  0  0
   22.3793   32.4876   34.7449 H   0  0  0  0  0  0  0  0  0  0  0  0
   23.8356   31.2241   35.3835 C   0  0  0  0  0  0  0  0  0  0  0  0
   24.4892   30.6799   34.9179 H   0  0  0  0  0  0  0  0  0  0  0  0
   24.3029   31.9935   35.7439 H   0  0  0  0  0  0  0  0  0  0  0  0
   23.2862   30.4264   36.5272 C   0  0  0  0  0  0  0  0  0  0  0  0
   20.4494   29.5250   38.1928 C   0  0  0  0  0  0  0  0  0  0  0  0
   20.0376   30.3283   37.9669 H   0  0  0  0  0  0  0  0  0  0  0  0
   21.5366   29.0832   37.4702 C   0  0  0  0  0  0  0  0  0  0  0  0
   22.1243   27.8839   37.8012 C   0  0  0  0  0  0  0  0  0  0  0  0
   19.9701   28.7786   39.2499 C   0  0  0  0  0  0  0  0  0  0  0  0
   19.2271   29.0728   39.7258 H   0  0  0  0  0  0  0  0  0  0  0  0
   20.3130   28.4720   41.9755 H   0  0  0  0  0  0  0  0  0  0  0  0
   22.0662   29.8615   36.3867 N   0  0  0  0  0  0  0  0  0  0  0  0
   23.9409   30.2849   37.5563 O   0  0  0  0  0  0  0  0  0  0  0  0
   22.8395   55.2511   37.2983 H   0  0  0  0  0  0  0  0  0  0  0  0
   21.6619   54.8359   38.8688 C   0  0  0  0  0  0  0  0  0  0  0  0
   22.0762   54.0344   39.0949 H   0  0  0  0  0  0  0  0  0  0  0  0
   20.5902   55.2839   39.6021 C   0  0  0  0  0  0  0  0  0  0  0  0
   20.3789   55.1933   42.0716 C   0  0  0  0  0  0  0  0  0  0  0  0
   21.2758   54.9840   42.3751 H   0  0  0  0  0  0  0  0  0  0  0  0
   19.9167   53.2148   40.6488 C   0  0  0  0  0  0  0  0  0  0  0  0
   19.7049   52.5689   41.9539 C   0  0  0  0  0  0  0  0  0  0  0  0
   19.3750   53.2389   43.0974 C   0  0  0  0  0  0  0  0  0  0  0  0
   19.3799   54.7275   43.1136 C   0  0  0  0  0  0  0  0  0  0  0  0
   18.4952   55.0670   42.9053 H   0  0  0  0  0  0  0  0  0  0  0  0
   19.6355   55.0518   43.9908 H   0  0  0  0  0  0  0  0  0  0  0  0
   19.0923   52.2398   44.0297 C   0  0  0  0  0  0  0  0  0  0  0  0
   18.6213   52.4134   45.4218 C   0  0  0  0  0  0  0  0  0  0  0  0
   19.9215   50.1154   41.3858 C   0  0  0  0  0  0  0  0  0  0  0  0
   21.0205   50.1632   40.5582 C   0  0  0  0  0  0  0  0  0  0  0  0
   21.5748   50.9102   40.5643 H   0  0  0  0  0  0  0  0  0  0  0  0
   21.2997   49.1042   39.7212 C   0  0  0  0  0  0  0  0  0  0  0  0
   22.0401   49.1370   39.1610 H   0  0  0  0  0  0  0  0  0  0  0  0
   20.4833   47.9995   39.7162 C   0  0  0  0  0  0  0  0  0  0  0  0
   19.4039   47.9402   40.5802 C   0  0  0  0  0  0  0  0  0  0  0  0
   18.8697   47.1798   40.5989 H   0  0  0  0  0  0  0  0  0  0  0  0
   19.1166   48.9931   41.4086 C   0  0  0  0  0  0  0  0  0  0  0  0
   18.3850   48.9529   41.9818 H   0  0  0  0  0  0  0  0  0  0  0  0
   21.6548   47.0312   37.8999 C   0  0  0  0  0  0  0  0  0  0  0  0
   21.6374   46.2496   37.3423 H   0  0  0  0  0  0  0  0  0  0  0  0
   21.4973   47.8110   37.3628 H   0  0  0  0  0  0  0  0  0  0  0  0
   22.5143   47.1022   38.3224 H   0  0  0  0  0  0  0  0  0  0  0  0
   18.3954   51.3629   47.0161 H   0  0  0  0  0  0  0  0  0  0  0  0
   19.0344   50.6528   45.9117 H   0  0  0  0  0  0  0  0  0  0  0  0
   20.1504   54.5586   40.7605 N   0  0  0  0  0  0  0  0  0  0  0  0
   19.6154   51.2328   42.2211 N   0  0  0  0  0  0  0  0  0  0  0  0
   19.2544   51.0201   43.5039 N   0  0  0  0  0  0  0  0  0  0  0  0
   18.6614   51.3273   46.1880 N   0  0  0  0  0  0  0  0  0  0  0  0
   19.8035   52.6444   39.5831 O   0  0  0  0  0  0  0  0  0  0  0  0
   18.1983   53.4969   45.7866 O   0  0  0  0  0  0  0  0  0  0  0  0
   20.6475   46.9280   38.8908 O   0  0  0  0  0  0  0  0  0  0  0  0
   21.1688   57.7988   35.2529 C   0  0  0  0  0  0  0  0  0  0  0  0
   20.4746   58.4155   35.5362 H   0  0  0  0  0  0  0  0  0  0  0  0
   20.7379   56.9662   35.0045 H   0  0  0  0  0  0  0  0  0  0  0  0
   21.8364   58.3546   34.0693 C   0  0  0  0  0  0  0  0  0  0  0  0
   22.2759   57.6334   33.5901 H   0  0  0  0  0  0  0  0  0  0  0  0
   21.1664   58.7338   33.4800 H   0  0  0  0  0  0  0  0  0  0  0  0
   22.8329   59.3913   34.3892 C   0  0  0  0  0  0  0  0  0  0  0  0
   23.2905   59.6571   33.5760 H   0  0  0  0  0  0  0  0  0  0  0  0
   22.3793   60.1720   34.7449 H   0  0  0  0  0  0  0  0  0  0  0  0
   23.8356   58.9085   35.3835 C   0  0  0  0  0  0  0  0  0  0  0  0
   24.4892   58.3643   34.9179 H   0  0  0  0  0  0  0  0  0  0  0  0
   24.3029   59.6779   35.7439 H   0  0  0  0  0  0  0  0  0  0  0  0
   23.2862   58.1108   36.5272 C   0  0  0  0  0  0  0  0  0  0  0  0
   20.4494   57.2094   38.1928 C   0  0  0  0  0  0  0  0  0  0  0  0
   20.0376   58.0127   37.9669 H   0  0  0  0  0  0  0  0  0  0  0  0
   21.5366   56.7676   37.4702 C   0  0  0  0  0  0  0  0  0  0  0  0
   22.1243   55.5683   37.8012 C   0  0  0  0  0  0  0  0  0  0  0  0
   19.9701   56.4630   39.2499 C   0  0  0  0  0  0  0  0  0  0  0  0
   19.2271   56.7572   39.7258 H   0  0  0  0  0  0  0  0  0  0  0  0
   20.3130   56.1564   41.9755 H   0  0  0  0  0  0  0  0  0  0  0  0
   22.0662   57.5459   36.3867 N   0  0  0  0  0  0  0  0  0  0  0  0
   23.9409   57.9693   37.5563 O   0  0  0  0  0  0  0  0  0  0  0  0
   15.6562   46.0177   43.1191 C   0  0  0  0  0  0  0  0  0  0  0  0
   14.9620   45.4010   43.4024 H   0  0  0  0  0  0  0  0  0  0  0  0
   15.2253   46.8503   42.8707 H   0  0  0  0  0  0  0  0  0  0  0  0
   16.3238   45.4619   41.9355 C   0  0  0  0  0  0  0  0  0  0  0  0
   16.7633   46.1831   41.4563 H   0  0  0  0  0  0  0  0  0  0  0  0
   15.6538   45.0827   41.3462 H   0  0  0  0  0  0  0  0  0  0  0  0
   17.3203   44.4252   42.2554 C   0  0  0  0  0  0  0  0  0  0  0  0
   17.7779   44.1594   41.4422 H   0  0  0  0  0  0  0  0  0  0  0  0
   16.8667   43.6445   42.6111 H   0  0  0  0  0  0  0  0  0  0  0  0
   17.7736   45.7057   44.3934 C   0  0  0  0  0  0  0  0  0  0  0  0
   14.9368   46.6071   46.0590 C   0  0  0  0  0  0  0  0  0  0  0  0
   14.5250   45.8038   45.8331 H   0  0  0  0  0  0  0  0  0  0  0  0
   16.0240   47.0489   45.3364 C   0  0  0  0  0  0  0  0  0  0  0  0
   16.6117   48.2482   45.6674 C   0  0  0  0  0  0  0  0  0  0  0  0
   17.3269   48.5654   45.1644 H   0  0  0  0  0  0  0  0  0  0  0  0
   16.1493   48.9806   46.7350 C   0  0  0  0  0  0  0  0  0  0  0  0
   16.5636   49.7821   46.9611 H   0  0  0  0  0  0  0  0  0  0  0  0
   14.4575   47.3535   47.1160 C   0  0  0  0  0  0  0  0  0  0  0  0
   16.5275   54.6795   47.0271 H   0  0  0  0  0  0  0  0  0  0  0  0
   16.5536   46.2706   44.2529 N   0  0  0  0  0  0  0  0  0  0  0  0
   15.0776   48.5326   47.4683 C   0  0  0  0  0  0  0  0  0  0  0  0
   13.7145   47.0593   47.5919 H   0  0  0  0  0  0  0  0  0  0  0  0
   14.8663   48.6232   49.9378 C   0  0  0  0  0  0  0  0  0  0  0  0
   15.7632   48.8325   50.2413 H   0  0  0  0  0  0  0  0  0  0  0  0
   14.8004   47.6601   49.8417 H   0  0  0  0  0  0  0  0  0  0  0  0
   14.4041   50.6017   48.5149 C   0  0  0  0  0  0  0  0  0  0  0  0
   14.1923   51.2476   49.8201 C   0  0  0  0  0  0  0  0  0  0  0  0
   13.8624   50.5776   50.9635 C   0  0  0  0  0  0  0  0  0  0  0  0
   13.8673   49.0890   50.9797 C   0  0  0  0  0  0  0  0  0  0  0  0
   12.9826   48.7495   50.7714 H   0  0  0  0  0  0  0  0  0  0  0  0
   14.1229   48.7647   51.8570 H   0  0  0  0  0  0  0  0  0  0  0  0
   13.5797   51.5767   51.8958 C   0  0  0  0  0  0  0  0  0  0  0  0
   13.1087   51.4031   53.2880 C   0  0  0  0  0  0  0  0  0  0  0  0
   14.4089   53.7011   49.2520 C   0  0  0  0  0  0  0  0  0  0  0  0
   15.5079   53.6533   48.4243 C   0  0  0  0  0  0  0  0  0  0  0  0
   16.0622   52.9063   48.4305 H   0  0  0  0  0  0  0  0  0  0  0  0
   15.7871   54.7123   47.5874 C   0  0  0  0  0  0  0  0  0  0  0  0
   13.6040   54.8234   49.2748 C   0  0  0  0  0  0  0  0  0  0  0  0
   12.8724   54.8636   49.8479 H   0  0  0  0  0  0  0  0  0  0  0  0
   12.8828   52.4536   54.8823 H   0  0  0  0  0  0  0  0  0  0  0  0
   13.5218   53.1637   53.7779 H   0  0  0  0  0  0  0  0  0  0  0  0
   14.6378   49.2579   48.6266 N   0  0  0  0  0  0  0  0  0  0  0  0
   14.1028   52.5837   50.0872 N   0  0  0  0  0  0  0  0  0  0  0  0
   13.7418   52.7964   51.3701 N   0  0  0  0  0  0  0  0  0  0  0  0
   13.1488   52.4892   54.0541 N   0  0  0  0  0  0  0  0  0  0  0  0
   14.2909   51.1721   47.4492 O   0  0  0  0  0  0  0  0  0  0  0  0
   12.6857   50.3196   53.6528 O   0  0  0  0  0  0  0  0  0  0  0  0
   16.1422   56.7853   45.7660 C   0  0  0  0  0  0  0  0  0  0  0  0
   16.1248   57.5669   45.2085 H   0  0  0  0  0  0  0  0  0  0  0  0
   15.9847   56.0055   45.2289 H   0  0  0  0  0  0  0  0  0  0  0  0
   17.0017   56.7143   46.1886 H   0  0  0  0  0  0  0  0  0  0  0  0
   15.1349   56.8885   46.7570 O   0  0  0  0  0  0  0  0  0  0  0  0
   14.9707   55.8170   47.5823 C   0  0  0  0  0  0  0  0  0  0  0  0
   13.8913   55.8763   48.4464 C   0  0  0  0  0  0  0  0  0  0  0  0
   13.3571   56.6367   48.4651 H   0  0  0  0  0  0  0  0  0  0  0  0
   18.3230   44.9080   43.2496 C   0  0  0  0  0  0  0  0  0  0  0  0
   18.9766   45.4522   42.7841 H   0  0  0  0  0  0  0  0  0  0  0  0
   18.7903   44.1386   43.6101 H   0  0  0  0  0  0  0  0  0  0  0  0
   18.4283   45.8472   45.4224 O   0  0  0  0  0  0  0  0  0  0  0  0
   26.6814   46.0177   27.3867 C   0  0  0  0  0  0  0  0  0  0  0  0
   25.9872   45.4010   27.6701 H   0  0  0  0  0  0  0  0  0  0  0  0
   26.2505   46.8503   27.1383 H   0  0  0  0  0  0  0  0  0  0  0  0
   27.3490   45.4619   26.2032 C   0  0  0  0  0  0  0  0  0  0  0  0
   27.7885   46.1831   25.7240 H   0  0  0  0  0  0  0  0  0  0  0  0
   26.6790   45.0827   25.6138 H   0  0  0  0  0  0  0  0  0  0  0  0
   28.3455   44.4252   26.5230 C   0  0  0  0  0  0  0  0  0  0  0  0
   28.8031   44.1594   25.7098 H   0  0  0  0  0  0  0  0  0  0  0  0
   27.8919   43.6445   26.8787 H   0  0  0  0  0  0  0  0  0  0  0  0
   28.7988   45.7057   28.6610 C   0  0  0  0  0  0  0  0  0  0  0  0
   25.9620   46.6071   30.3266 C   0  0  0  0  0  0  0  0  0  0  0  0
   25.5502   45.8038   30.1007 H   0  0  0  0  0  0  0  0  0  0  0  0
   27.0492   47.0489   29.6040 C   0  0  0  0  0  0  0  0  0  0  0  0
   27.6369   48.2482   29.9350 C   0  0  0  0  0  0  0  0  0  0  0  0
   28.3521   48.5654   29.4321 H   0  0  0  0  0  0  0  0  0  0  0  0
   27.1745   48.9806   31.0026 C   0  0  0  0  0  0  0  0  0  0  0  0
   27.5888   49.7821   31.2287 H   0  0  0  0  0  0  0  0  0  0  0  0
   25.4827   47.3535   31.3837 C   0  0  0  0  0  0  0  0  0  0  0  0
   27.5527   54.6795   31.2948 H   0  0  0  0  0  0  0  0  0  0  0  0
   27.5788   46.2706   28.5205 N   0  0  0  0  0  0  0  0  0  0  0  0
   26.1028   48.5326   31.7359 C   0  0  0  0  0  0  0  0  0  0  0  0
   24.7397   47.0593   31.8596 H   0  0  0  0  0  0  0  0  0  0  0  0
   25.8915   48.6232   34.2054 C   0  0  0  0  0  0  0  0  0  0  0  0
   26.7884   48.8325   34.5089 H   0  0  0  0  0  0  0  0  0  0  0  0
   25.8256   47.6601   34.1093 H   0  0  0  0  0  0  0  0  0  0  0  0
   25.4293   50.6017   32.7826 C   0  0  0  0  0  0  0  0  0  0  0  0
   25.2175   51.2476   34.0878 C   0  0  0  0  0  0  0  0  0  0  0  0
   24.8876   50.5776   35.2312 C   0  0  0  0  0  0  0  0  0  0  0  0
   24.8925   49.0890   35.2474 C   0  0  0  0  0  0  0  0  0  0  0  0
   24.0078   48.7495   35.0391 H   0  0  0  0  0  0  0  0  0  0  0  0
   25.1481   48.7647   36.1246 H   0  0  0  0  0  0  0  0  0  0  0  0
   24.6049   51.5767   36.1635 C   0  0  0  0  0  0  0  0  0  0  0  0
   24.1339   51.4031   37.5556 C   0  0  0  0  0  0  0  0  0  0  0  0
   25.4341   53.7011   33.5197 C   0  0  0  0  0  0  0  0  0  0  0  0
   26.5331   53.6533   32.6920 C   0  0  0  0  0  0  0  0  0  0  0  0
   27.0874   52.9063   32.6981 H   0  0  0  0  0  0  0  0  0  0  0  0
   26.8123   54.7123   31.8550 C   0  0  0  0  0  0  0  0  0  0  0  0
   24.6292   54.8234   33.5425 C   0  0  0  0  0  0  0  0  0  0  0  0
   23.8976   54.8636   34.1156 H   0  0  0  0  0  0  0  0  0  0  0  0
   23.9080   52.4536   39.1500 H   0  0  0  0  0  0  0  0  0  0  0  0
   24.5470   53.1637   38.0455 H   0  0  0  0  0  0  0  0  0  0  0  0
   25.6630   49.2579   32.8943 N   0  0  0  0  0  0  0  0  0  0  0  0
   25.1280   52.5837   34.3549 N   0  0  0  0  0  0  0  0  0  0  0  0
   24.7670   52.7964   35.6377 N   0  0  0  0  0  0  0  0  0  0  0  0
   24.1740   52.4892   38.3218 N   0  0  0  0  0  0  0  0  0  0  0  0
   25.3161   51.1721   31.7169 O   0  0  0  0  0  0  0  0  0  0  0  0
   23.7109   50.3196   37.9205 O   0  0  0  0  0  0  0  0  0  0  0  0
   27.1674   56.7853   30.0337 C   0  0  0  0  0  0  0  0  0  0  0  0
   27.1500   57.5669   29.4761 H   0  0  0  0  0  0  0  0  0  0  0  0
   27.0099   56.0055   29.4966 H   0  0  0  0  0  0  0  0  0  0  0  0
   28.0269   56.7143   30.4563 H   0  0  0  0  0  0  0  0  0  0  0  0
   26.1601   56.8885   31.0247 O   0  0  0  0  0  0  0  0  0  0  0  0
   25.9959   55.8170   31.8500 C   0  0  0  0  0  0  0  0  0  0  0  0
   24.9165   55.8763   32.7140 C   0  0  0  0  0  0  0  0  0  0  0  0
   24.3823   56.6367   32.7327 H   0  0  0  0  0  0  0  0  0  0  0  0
   29.3482   44.9080   27.5173 C   0  0  0  0  0  0  0  0  0  0  0  0
   30.0018   45.4522   27.0518 H   0  0  0  0  0  0  0  0  0  0  0  0
   29.8155   44.1386   27.8777 H   0  0  0  0  0  0  0  0  0  0  0  0
   29.4535   45.8472   29.6901 O   0  0  0  0  0  0  0  0  0  0  0  0
   25.9132   25.2544   43.4089 C   0  0  0  0  0  0  0  0  0  0  0  0
   26.6074   24.6377   43.1255 H   0  0  0  0  0  0  0  0  0  0  0  0
   26.3441   26.0870   43.6573 H   0  0  0  0  0  0  0  0  0  0  0  0
   25.2456   24.6986   44.5924 C   0  0  0  0  0  0  0  0  0  0  0  0
   24.8061   25.4198   45.0716 H   0  0  0  0  0  0  0  0  0  0  0  0
   25.9156   24.3194   45.1817 H   0  0  0  0  0  0  0  0  0  0  0  0
   24.2491   23.6619   44.2726 C   0  0  0  0  0  0  0  0  0  0  0  0
   23.7915   23.3961   45.0858 H   0  0  0  0  0  0  0  0  0  0  0  0
   24.7027   22.8812   43.9169 H   0  0  0  0  0  0  0  0  0  0  0  0
   23.2464   24.1447   43.2783 C   0  0  0  0  0  0  0  0  0  0  0  0
   22.5928   24.6889   43.7438 H   0  0  0  0  0  0  0  0  0  0  0  0
   22.7791   23.3753   42.9178 H   0  0  0  0  0  0  0  0  0  0  0  0
   23.7959   24.9424   42.1345 C   0  0  0  0  0  0  0  0  0  0  0  0
   26.6326   25.8438   40.4690 C   0  0  0  0  0  0  0  0  0  0  0  0
   27.0445   25.0405   40.6949 H   0  0  0  0  0  0  0  0  0  0  0  0
   25.5454   26.2856   41.1915 C   0  0  0  0  0  0  0  0  0  0  0  0
   24.9577   27.4849   40.8605 C   0  0  0  0  0  0  0  0  0  0  0  0
   27.1119   26.5902   39.4119 C   0  0  0  0  0  0  0  0  0  0  0  0
   27.8550   26.2960   38.9360 H   0  0  0  0  0  0  0  0  0  0  0  0
   26.7690   26.8968   36.6863 H   0  0  0  0  0  0  0  0  0  0  0  0
   25.0158   25.5073   42.2750 N   0  0  0  0  0  0  0  0  0  0  0  0
   23.1411   25.0839   41.1055 O   0  0  0  0  0  0  0  0  0  0  0  0
   24.2425   27.8021   41.3635 H   0  0  0  0  0  0  0  0  0  0  0  0
   25.4201   28.2173   39.7929 C   0  0  0  0  0  0  0  0  0  0  0  0
   25.0058   29.0188   39.5669 H   0  0  0  0  0  0  0  0  0  0  0  0
   26.4918   27.7693   39.0596 C   0  0  0  0  0  0  0  0  0  0  0  0
   26.7031   27.8599   36.5901 C   0  0  0  0  0  0  0  0  0  0  0  0
   25.8062   28.0692   36.2867 H   0  0  0  0  0  0  0  0  0  0  0  0
   27.1653   29.8384   38.0130 C   0  0  0  0  0  0  0  0  0  0  0  0
   27.3771   30.4843   36.7078 C   0  0  0  0  0  0  0  0  0  0  0  0
   27.7070   29.8143   35.5644 C   0  0  0  0  0  0  0  0  0  0  0  0
   27.7021   28.3257   35.5482 C   0  0  0  0  0  0  0  0  0  0  0  0
   28.5868   27.9862   35.7565 H   0  0  0  0  0  0  0  0  0  0  0  0
   27.4465   28.0014   34.6710 H   0  0  0  0  0  0  0  0  0  0  0  0
   27.9897   30.8134   34.6321 C   0  0  0  0  0  0  0  0  0  0  0  0
   28.4607   30.6398   33.2399 C   0  0  0  0  0  0  0  0  0  0  0  0
   27.1605   32.9378   37.2759 C   0  0  0  0  0  0  0  0  0  0  0  0
   26.0615   32.8900   38.1036 C   0  0  0  0  0  0  0  0  0  0  0  0
   25.5072   32.1430   38.0975 H   0  0  0  0  0  0  0  0  0  0  0  0
   25.7823   33.9490   38.9406 C   0  0  0  0  0  0  0  0  0  0  0  0
   25.0419   33.9162   39.5008 H   0  0  0  0  0  0  0  0  0  0  0  0
   26.5987   35.0537   38.9456 C   0  0  0  0  0  0  0  0  0  0  0  0
   27.6781   35.1130   38.0816 C   0  0  0  0  0  0  0  0  0  0  0  0
   28.2124   35.8734   38.0628 H   0  0  0  0  0  0  0  0  0  0  0  0
   27.9654   34.0601   37.2531 C   0  0  0  0  0  0  0  0  0  0  0  0
   28.6970   34.1003   36.6800 H   0  0  0  0  0  0  0  0  0  0  0  0
   25.4272   36.0220   40.7619 C   0  0  0  0  0  0  0  0  0  0  0  0
   25.4446   36.8036   41.3194 H   0  0  0  0  0  0  0  0  0  0  0  0
   25.5847   35.2422   41.2990 H   0  0  0  0  0  0  0  0  0  0  0  0
   24.5677   35.9510   40.3393 H   0  0  0  0  0  0  0  0  0  0  0  0
   28.6866   31.6903   31.6456 H   0  0  0  0  0  0  0  0  0  0  0  0
   28.0476   32.4004   32.7500 H   0  0  0  0  0  0  0  0  0  0  0  0
   26.9316   28.4946   37.9013 N   0  0  0  0  0  0  0  0  0  0  0  0
   27.4666   31.8204   36.4407 N   0  0  0  0  0  0  0  0  0  0  0  0
   27.8276   32.0331   35.1579 N   0  0  0  0  0  0  0  0  0  0  0  0
   28.4206   31.7259   32.4738 N   0  0  0  0  0  0  0  0  0  0  0  0
   27.2785   30.4088   39.0787 O   0  0  0  0  0  0  0  0  0  0  0  0
   28.8837   29.5563   32.8751 O   0  0  0  0  0  0  0  0  0  0  0  0
   26.4345   36.1252   39.7709 O   0  0  0  0  0  0  0  0  0  0  0  0
  1  2  1  0  0  0  0
  1  3  1  0  0  0  0
  1  4  1  0  0  0  0
  4  5  1  0  0  0  0
  4  6  1  0  0  0  0
  4  7  1  0  0  0  0
  7  8  1  0  0  0  0
  7  9  1  0  0  0  0
  7 10  1  0  0  0  0
 10 11  1  0  0  0  0
 10 12  1  0  0  0  0
 10 13  1  0  0  0  0
 14 15  1  0  0  0  0
 14 16  4  0  0  0  0
 16 17  4  0  0  0  0
 14 18  4  0  0  0  0
 18 19  1  0  0  0  0
  1 21  1  0  0  0  0
 13 21  4  0  0  0  0
 16 21  1  0  0  0  0
 13 22  2  0  0  0  0
 17 23  1  0  0  0  0
 17 24  4  0  0  0  0
 24 25  1  0  0  0  0
 18 26  4  0  0  0  0
 24 26  4  0  0  0  0
 20 27  1  0  0  0  0
 27 28  1  0  0  0  0
 29 30  1  0  0  0  0
 30 31  4  0  0  0  0
 27 32  1  0  0  0  0
 31 32  1  0  0  0  0
 32 33  1  0  0  0  0
 32 34  1  0  0  0  0
 31 35  4  0  0  0  0
 35 36  1  0  0  0  0
 37 38  4  0  0  0  0
 38 39  1  0  0  0  0
 38 40  4  0  0  0  0
 40 41  1  0  0  0  0
 40 42  4  0  0  0  0
 42 43  4  0  0  0  0
 43 44  1  0  0  0  0
 37 45  4  0  0  0  0
 43 45  4  0  0  0  0
 45 46  1  0  0  0  0
 47 48  1  0  0  0  0
 47 49  1  0  0  0  0
 47 50  1  0  0  0  0
 26 53  1  0  0  0  0
 27 53  1  0  0  0  0
 29 53  4  0  0  0  0
 30 54  4  0  0  0  0
 37 54  1  0  0  0  0
 35 55  4  0  0  0  0
 54 55  4  0  0  0  0
 36 56  4  0  0  0  0
 51 56  1  0  0  0  0
 52 56  1  0  0  0  0
 29 57  2  0  0  0  0
 36 58  2  0  0  0  0
 42 59  1  0  0  0  0
 47 59  1  0  0  0  0
 60 61  1  0  0  0  0
 60 62  1  0  0  0  0
 64 65  4  0  0  0  0
 65 66  1  0  0  0  0
 67 68  1  0  0  0  0
 67 69  1  0  0  0  0
 67 70  1  0  0  0  0
 64 71  1  0  0  0  0
 67 71  1  0  0  0  0
 74 75  1  0  0  0  0
 74 76  1  0  0  0  0
 77 78  1  0  0  0  0
 78 79  4  0  0  0  0
 74 80  1  0  0  0  0
 79 80  1  0  0  0  0
 80 81  1  0  0  0  0
 80 82  1  0  0  0  0
 79 83  4  0  0  0  0
 83 84  1  0  0  0  0
 85 86  4  0  0  0  0
 86 87  1  0  0  0  0
 64 88  4  0  0  0  0
 86 88  4  0  0  0  0
 65 89  4  0  0  0  0
 85 89  4  0  0  0  0
 89 90  1  0  0  0  0
 72 93  1  0  0  0  0
 74 93  1  0  0  0  0
 77 93  1  0  0  0  0
 78 94  4  0  0  0  0
 85 94  1  0  0  0  0
 83 95  4  0  0  0  0
 94 95  4  0  0  0  0
 84 96  4  0  0  0  0
 91 96  1  0  0  0  0
 92 96  1  0  0  0  0
 77 97  2  0  0  0  0
 84 98  2  0  0  0  0
 99100  1  0  0  0  0
 99101  1  0  0  0  0
 99102  1  0  0  0  0
102103  1  0  0  0  0
102104  1  0  0  0  0
 60105  1  0  0  0  0
102105  1  0  0  0  0
105106  1  0  0  0  0
105107  1  0  0  0  0
 60108  1  0  0  0  0
 63108  2  0  0  0  0
109110  1  0  0  0  0
109111  4  0  0  0  0
111112  4  0  0  0  0
112113  1  0  0  0  0
 72114  4  0  0  0  0
112114  4  0  0  0  0
114115  1  0  0  0  0
 72116  4  0  0  0  0
 73116  1  0  0  0  0
109116  4  0  0  0  0
 88117  1  0  0  0  0
 99118  1  0  0  0  0
108118  4  0  0  0  0
111118  1  0  0  0  0
119120  1  0  0  0  0
119121  1  0  0  0  0
123124  4  0  0  0  0
124125  1  0  0  0  0
126127  1  0  0  0  0
126128  1  0  0  0  0
126129  1  0  0  0  0
123130  1  0  0  0  0
126130  1  0  0  0  0
133134  1  0  0  0  0
133135  1  0  0  0  0
136137  1  0  0  0  0
137138  4  0  0  0  0
133139  1  0  0  0  0
138139  1  0  0  0  0
139140  1  0  0  0  0
139141  1  0  0  0  0
138142  4  0  0  0  0
142143  1  0  0  0  0
144145  4  0  0  0  0
145146  1  0  0  0  0
123147  4  0  0  0  0
145147  4  0  0  0  0
124148  4  0  0  0  0
144148  4  0  0  0  0
148149  1  0  0  0  0
131152  1  0  0  0  0
133152  1  0  0  0  0
136152  1  0  0  0  0
137153  4  0  0  0  0
144153  1  0  0  0  0
142154  4  0  0  0  0
153154  4  0  0  0  0
143155  4  0  0  0  0
150155  1  0  0  0  0
151155  1  0  0  0  0
136156  2  0  0  0  0
143157  2  0  0  0  0
158159  1  0  0  0  0
158160  1  0  0  0  0
158161  1  0  0  0  0
161162  1  0  0  0  0
161163  1  0  0  0  0
119164  1  0  0  0  0
161164  1  0  0  0  0
164165  1  0  0  0  0
164166  1  0  0  0  0
119167  1  0  0  0  0
122167  2  0  0  0  0
168169  1  0  0  0  0
168170  4  0  0  0  0
170171  4  0  0  0  0
171172  1  0  0  0  0
131173  4  0  0  0  0
171173  4  0  0  0  0
173174  1  0  0  0  0
131175  4  0  0  0  0
132175  1  0  0  0  0
168175  4  0  0  0  0
147176  1  0  0  0  0
158177  1  0  0  0  0
167177  4  0  0  0  0
170177  1  0  0  0  0
178179  1  0  0  0  0
178180  1  0  0  0  0
178181  1  0  0  0  0
181182  1  0  0  0  0
181183  1  0  0  0  0
181184  1  0  0  0  0
184185  1  0  0  0  0
184186  1  0  0  0  0
188189  1  0  0  0  0
188190  4  0  0  0  0
190191  4  0  0  0  0
191192  1  0  0  0  0
191193  4  0  0  0  0
193194  1  0  0  0  0
188195  4  0  0  0  0
178197  1  0  0  0  0
187197  4  0  0  0  0
190197  1  0  0  0  0
193198  4  0  0  0  0
195198  4  0  0  0  0
195199  1  0  0  0  0
200201  1  0  0  0  0
200202  1  0  0  0  0
203204  1  0  0  0  0
204205  4  0  0  0  0
200206  1  0  0  0  0
205206  1  0  0  0  0
206207  1  0  0  0  0
206208  1  0  0  0  0
205209  4  0  0  0  0
209210  1  0  0  0  0
211212  4  0  0  0  0
212213  1  0  0  0  0
196214  1  0  0  0  0
212214  4  0  0  0  0
211215  4  0  0  0  0
215216  1  0  0  0  0
198219  1  0  0  0  0
200219  1  0  0  0  0
203219  4  0  0  0  0
204220  4  0  0  0  0
211220  1  0  0  0  0
209221  4  0  0  0  0
220221  4  0  0  0  0
210222  4  0  0  0  0
217222  1  0  0  0  0
218222  1  0  0  0  0
203223  2  0  0  0  0
210224  2  0  0  0  0
225226  1  0  0  0  0
225227  1  0  0  0  0
225228  1  0  0  0  0
225229  1  0  0  0  0
214230  4  0  0  0  0
229230  1  0  0  0  0
215231  4  0  0  0  0
230231  4  0  0  0  0
231232  1  0  0  0  0
184233  1  0  0  0  0
187233  1  0  0  0  0
233234  1  0  0  0  0
233235  1  0  0  0  0
187236  2  0  0  0  0
237238  1  0  0  0  0
237239  1  0  0  0  0
237240  1  0  0  0  0
240241  1  0  0  0  0
240242  1  0  0  0  0
240243  1  0  0  0  0
243244  1  0  0  0  0
243245  1  0  0  0  0
247248  1  0  0  0  0
247249  4  0  0  0  0
249250  4  0  0  0  0
250251  1  0  0  0  0
250252  4  0  0  0  0
252253  1  0  0  0  0
247254  4  0  0  0  0
237256  1  0  0  0  0
246256  4  0  0  0  0
249256  1  0  0  0  0
252257  4  0  0  0  0
254257  4  0  0  0  0
254258  1  0  0  0  0
259260  1  0  0  0  0
259261  1  0  0  0  0
262263  1  0  0  0  0
263264  4  0  0  0  0
259265  1  0  0  0  0
264265  1  0  0  0  0
265266  1  0  0  0  0
265267  1  0  0  0  0
264268  4  0  0  0  0
268269  1  0  0  0  0
270271  4  0  0  0  0
271272  1  0  0  0  0
255273  1  0  0  0  0
271273  4  0  0  0  0
270274  4  0  0  0  0
274275  1  0  0  0  0
257278  1  0  0  0  0
259278  1  0  0  0  0
262278  4  0  0  0  0
263279  4  0  0  0  0
270279  1  0  0  0  0
268280  4  0  0  0  0
279280  4  0  0  0  0
269281  4  0  0  0  0
276281  1  0  0  0  0
277281  1  0  0  0  0
262282  2  0  0  0  0
269283  2  0  0  0  0
284285  1  0  0  0  0
284286  1  0  0  0  0
284287  1  0  0  0  0
284288  1  0  0  0  0
273289  4  0  0  0  0
288289  1  0  0  0  0
274290  4  0  0  0  0
289290  4  0  0  0  0
290291  1  0  0  0  0
243292  1  0  0  0  0
246292  1  0  0  0  0
292293  1  0  0  0  0
292294  1  0  0  0  0
246295  2  0  0  0  0
296297  1  0  0  0  0
296298  1  0  0  0  0
300301  4  0  0  0  0
301302  1  0  0  0  0
303304  1  0  0  0  0
303305  1  0  0  0  0
303306  1  0  0  0  0
300307  1  0  0  0  0
303307  1  0  0  0  0
310311  1  0  0  0  0
310312  1  0  0  0  0
313314  1  0  0  0  0
314315  4  0  0  0  0
310316  1  0  0  0  0
315316  1  0  0  0  0
316317  1  0  0  0  0
316318  1  0  0  0  0
315319  4  0  0  0  0
319320  1  0  0  0  0
321322  4  0  0  0  0
322323  1  0  0  0  0
300324  4  0  0  0  0
322324  4  0  0  0  0
301325  4  0  0  0  0
321325  4  0  0  0  0
325326  1  0  0  0  0
308329  1  0  0  0  0
310329  1  0  0  0  0
313329  4  0  0  0  0
314330  4  0  0  0  0
321330  1  0  0  0  0
319331  4  0  0  0  0
330331  4  0  0  0  0
320332  4  0  0  0  0
327332  1  0  0  0  0
328332  1  0  0  0  0
313333  2  0  0  0  0
320334  2  0  0  0  0
335336  1  0  0  0  0
335337  1  0  0  0  0
335338  1  0  0  0  0
338339  1  0  0  0  0
338340  1  0  0  0  0
296341  1  0  0  0  0
338341  1  0  0  0  0
341342  1  0  0  0  0
341343  1  0  0  0  0
296344  1  0  0  0  0
299344  2  0  0  0  0
345346  1  0  0  0  0
345347  4  0  0  0  0
347348  4  0  0  0  0
348349  1  0  0  0  0
308350  4  0  0  0  0
348350  4  0  0  0  0
350351  1  0  0  0  0
308352  4  0  0  0  0
309352  1  0  0  0  0
345352  4  0  0  0  0
324353  1  0  0  0  0
335354  1  0  0  0  0
344354  4  0  0  0  0
347354  1  0  0  0  0
355356  1  0  0  0  0
355357  1  0  0  0  0
359360  4  0  0  0  0
360361  1  0  0  0  0
362363  1  0  0  0  0
362364  1  0  0  0  0
362365  1  0  0  0  0
359366  1  0  0  0  0
362366  1  0  0  0  0
369370  1  0  0  0  0
369371  1  0  0  0  0
372373  1  0  0  0  0
373374  4  0  0  0  0
369375  1  0  0  0  0
374375  1  0  0  0  0
375376  1  0  0  0  0
375377  1  0  0  0  0
374378  4  0  0  0  0
378379  1  0  0  0  0
380381  4  0  0  0  0
381382  1  0  0  0  0
359383  4  0  0  0  0
381383  4  0  0  0  0
360384  4  0  0  0  0
380384  4  0  0  0  0
384385  1  0  0  0  0
367388  1  0  0  0  0
369388  1  0  0  0  0
372388  4  0  0  0  0
373389  4  0  0  0  0
380389  1  0  0  0  0
378390  4  0  0  0  0
389390  4  0  0  0  0
379391  4  0  0  0  0
386391  1  0  0  0  0
387391  1  0  0  0  0
372392  2  0  0  0  0
379393  2  0  0  0  0
394395  1  0  0  0  0
394396  1  0  0  0  0
394397  1  0  0  0  0
397398  1  0  0  0  0
397399  1  0  0  0  0
355400  1  0  0  0  0
397400  1  0  0  0  0
400401  1  0  0  0  0
400402  1  0  0  0  0
355403  1  0  0  0  0
358403  2  0  0  0  0
404405  1  0  0  0  0
404406  4  0  0  0  0
406407  4  0  0  0  0
407408  1  0  0  0  0
367409  4  0  0  0  0
407409  4  0  0  0  0
409410  1  0  0  0  0
367411  4  0  0  0  0
368411  1  0  0  0  0
404411  4  0  0  0  0
383412  1  0  0  0  0
394413  1  0  0  0  0
403413  4  0  0  0  0
406413  1  0  0  0  0
414415  1  0  0  0  0
414416  1  0  0  0  0
414417  1  0  0  0  0
417418  1  0  0  0  0
417419  1  0  0  0  0
417420  1  0  0  0  0
420421  1  0  0  0  0
420422  1  0  0  0  0
420423  1  0  0  0  0
423424  1  0  0  0  0
423425  1  0  0  0  0
423426  1  0  0  0  0
427428  1  0  0  0  0
427429  4  0  0  0  0
429430  4  0  0  0  0
427431  4  0  0  0  0
431432  1  0  0  0  0
414434  1  0  0  0  0
426434  4  0  0  0  0
429434  1  0  0  0  0
426435  2  0  0  0  0
430436  1  0  0  0  0
430437  4  0  0  0  0
437438  1  0  0  0  0
431439  4  0  0  0  0
437439  4  0  0  0  0
433440  1  0  0  0  0
440441  1  0  0  0  0
442443  1  0  0  0  0
443444  4  0  0  0  0
440445  1  0  0  0  0
444445  1  0  0  0  0
445446  1  0  0  0  0
445447  1  0  0  0  0
444448  4  0  0  0  0
448449  1  0  0  0  0
450451  4  0  0  0  0
451452  1  0  0  0  0
451453  4  0  0  0  0
453454  1  0  0  0  0
453455  4  0  0  0  0
455456  4  0  0  0  0
456457  1  0  0  0  0
450458  4  0  0  0  0
456458  4  0  0  0  0
458459  1  0  0  0  0
460461  1  0  0  0  0
460462  1  0  0  0  0
460463  1  0  0  0  0
439466  1  0  0  0  0
440466  1  0  0  0  0
442466  4  0  0  0  0
443467  4  0  0  0  0
450467  1  0  0  0  0
448468  4  0  0  0  0
467468  4  0  0  0  0
449469  4  0  0  0  0
464469  1  0  0  0  0
465469  1  0  0  0  0
442470  2  0  0  0  0
449471  2  0  0  0  0
455472  1  0  0  0  0
460472  1  0  0  0  0
474475  1  0  0  0  0
474476  4  0  0  0  0
477478  1  0  0  0  0
479480  1  0  0  0  0
480481  4  0  0  0  0
477482  1  0  0  0  0
481482  1  0  0  0  0
482483  1  0  0  0  0
482484  1  0  0  0  0
481485  4  0  0  0  0
485486  1  0  0  0  0
487488  4  0  0  0  0
488489  1  0  0  0  0
488490  4  0  0  0  0
490491  1  0  0  0  0
490492  4  0  0  0  0
492493  4  0  0  0  0
493494  1  0  0  0  0
487495  4  0  0  0  0
493495  4  0  0  0  0
495496  1  0  0  0  0
497498  1  0  0  0  0
497499  1  0  0  0  0
497500  1  0  0  0  0
476503  1  0  0  0  0
477503  1  0  0  0  0
479503  4  0  0  0  0
480504  4  0  0  0  0
487504  1  0  0  0  0
485505  4  0  0  0  0
504505  4  0  0  0  0
486506  4  0  0  0  0
501506  1  0  0  0  0
502506  1  0  0  0  0
479507  2  0  0  0  0
486508  2  0  0  0  0
492509  1  0  0  0  0
497509  1  0  0  0  0
510511  1  0  0  0  0
510512  1  0  0  0  0
510513  1  0  0  0  0
513514  1  0  0  0  0
513515  1  0  0  0  0
513516  1  0  0  0  0
516517  1  0  0  0  0
516518  1  0  0  0  0
516519  1  0  0  0  0
519520  1  0  0  0  0
519521  1  0  0  0  0
519522  1  0  0  0  0
523524  1  0  0  0  0
523525  4  0  0  0  0
473526  1  0  0  0  0
474526  4  0  0  0  0
525526  4  0  0  0  0
476527  4  0  0  0  0
523527  4  0  0  0  0
527528  1  0  0  0  0
477529  1  0  0  0  0
510530  1  0  0  0  0
522530  4  0  0  0  0
525530  1  0  0  0  0
522531  2  0  0  0  0
533534  1  0  0  0  0
533535  4  0  0  0  0
536537  1  0  0  0  0
538539  1  0  0  0  0
539540  4  0  0  0  0
536541  1  0  0  0  0
540541  1  0  0  0  0
541542  1  0  0  0  0
541543  1  0  0  0  0
540544  4  0  0  0  0
544545  1  0  0  0  0
546547  4  0  0  0  0
547548  1  0  0  0  0
547549  4  0  0  0  0
549550  1  0  0  0  0
549551  4  0  0  0  0
551552  4  0  0  0  0
552553  1  0  0  0  0
546554  4  0  0  0  0
552554  4  0  0  0  0
554555  1  0  0  0  0
556557  1  0  0  0  0
556558  1  0  0  0  0
556559  1  0  0  0  0
535562  1  0  0  0  0
536562  1  0  0  0  0
538562  1  0  0  0  0
539563  4  0  0  0  0
546563  1  0  0  0  0
544564  4  0  0  0  0
563564  4  0  0  0  0
545565  4  0  0  0  0
560565  1  0  0  0  0
561565  1  0  0  0  0
538566  2  0  0  0  0
545567  2  0  0  0  0
551568  1  0  0  0  0
556568  1  0  0  0  0
569570  1  0  0  0  0
569571  1  0  0  0  0
569572  1  0  0  0  0
572573  1  0  0  0  0
572574  1  0  0  0  0
572575  1  0  0  0  0
575576  1  0  0  0  0
575577  1  0  0  0  0
575578  1  0  0  0  0
578579  1  0  0  0  0
578580  1  0  0  0  0
578581  1  0  0  0  0
582583  1  0  0  0  0
582584  4  0  0  0  0
532585  1  0  0  0  0
533585  4  0  0  0  0
584585  4  0  0  0  0
535586  4  0  0  0  0
582586  4  0  0  0  0
586587  1  0  0  0  0
536588  1  0  0  0  0
569589  1  0  0  0  0
581589  4  0  0  0  0
584589  1  0  0  0  0
581590  2  0  0  0  0
591592  1  0  0  0  0
591593  1  0  0  0  0
591594  1  0  0  0  0
594595  1  0  0  0  0
594596  1  0  0  0  0
594597  1  0  0  0  0
597598  1  0  0  0  0
597599  1  0  0  0  0
601602  1  0  0  0  0
601603  4  0  0  0  0
603604  4  0  0  0  0
604605  1  0  0  0  0
604606  4  0  0  0  0
606607  1  0  0  0  0
601608  4  0  0  0  0
591610  1  0  0  0  0
600610  4  0  0  0  0
603610  1  0  0  0  0
606611  4  0  0  0  0
608611  4  0  0  0  0
608612  1  0  0  0  0
613614  1  0  0  0  0
613615  1  0  0  0  0
616617  1  0  0  0  0
617618  4  0  0  0  0
613619  1  0  0  0  0
618619  1  0  0  0  0
619620  1  0  0  0  0
619621  1  0  0  0  0
618622  4  0  0  0  0
622623  1  0  0  0  0
624625  4  0  0  0  0
625626  1  0  0  0  0
609627  1  0  0  0  0
625627  4  0  0  0  0
624628  4  0  0  0  0
628629  1  0  0  0  0
611632  1  0  0  0  0
613632  1  0  0  0  0
616632  1  0  0  0  0
617633  4  0  0  0  0
624633  1  0  0  0  0
622634  4  0  0  0  0
633634  4  0  0  0  0
623635  4  0  0  0  0
630635  1  0  0  0  0
631635  1  0  0  0  0
616636  2  0  0  0  0
623637  2  0  0  0  0
638639  1  0  0  0  0
638640  1  0  0  0  0
638641  1  0  0  0  0
638642  1  0  0  0  0
627643  4  0  0  0  0
642643  1  0  0  0  0
628644  4  0  0  0  0
643644  4  0  0  0  0
644645  1  0  0  0  0
597646  1  0  0  0  0
600646  1  0  0  0  0
646647  1  0  0  0  0
646648  1  0  0  0  0
600649  2  0  0  0  0
650651  1  0  0  0  0
650652  1  0  0  0  0
650653  1  0  0  0  0
653654  1  0  0  0  0
653655  1  0  0  0  0
653656  1  0  0  0  0
656657  1  0  0  0  0
656658  1  0  0  0  0
660661  1  0  0  0  0
660662  4  0  0  0  0
662663  4  0  0  0  0
663664  1  0  0  0  0
663665  4  0  0  0  0
665666  1  0  0  0  0
660667  4  0  0  0  0
650669  1  0  0  0  0
659669  4  0  0  0  0
662669  1  0  0  0  0
665670  4  0  0  0  0
667670  4  0  0  0  0
667671  1  0  0  0  0
672673  1  0  0  0  0
672674  1  0  0  0  0
675676  1  0  0  0  0
676677  4  0  0  0  0
672678  1  0  0  0  0
677678  1  0  0  0  0
678679  1  0  0  0  0
678680  1  0  0  0  0
677681  4  0  0  0  0
681682  1  0  0  0  0
683684  4  0  0  0  0
684685  1  0  0  0  0
668686  1  0  0  0  0
684686  4  0  0  0  0
683687  4  0  0  0  0
687688  1  0  0  0  0
670691  1  0  0  0  0
672691  1  0  0  0  0
675691  4  0  0  0  0
676692  4  0  0  0  0
683692  1  0  0  0  0
681693  4  0  0  0  0
692693  4  0  0  0  0
682694  4  0  0  0  0
689694  1  0  0  0  0
690694  1  0  0  0  0
675695  2  0  0  0  0
682696  2  0  0  0  0
697698  1  0  0  0  0
697699  1  0  0  0  0
697700  1  0  0  0  0
697701  1  0  0  0  0
686702  4  0  0  0  0
701702  1  0  0  0  0
687703  4  0  0  0  0
702703  4  0  0  0  0
703704  1  0  0  0  0
656705  1  0  0  0  0
659705  1  0  0  0  0
705706  1  0  0  0  0
705707  1  0  0  0  0
659708  2  0  0  0  0
709710  1  0  0  0  0
709711  1  0  0  0  0
709712  1  0  0  0  0
712713  1  0  0  0  0
712714  1  0  0  0  0
712715  1  0  0  0  0
715716  1  0  0  0  0
715717  1  0  0  0  0
715718  1  0  0  0  0
718719  1  0  0  0  0
718720  1  0  0  0  0
718721  1  0  0  0  0
722723  1  0  0  0  0
722724  4  0  0  0  0
724725  4  0  0  0  0
722726  4  0  0  0  0
726727  1  0  0  0  0
709729  1  0  0  0  0
721729  4  0  0  0  0
724729  1  0  0  0  0
721730  2  0  0  0  0
725731  1  0  0  0  0
725732  4  0  0  0  0
732733  1  0  0  0  0
726734  4  0  0  0  0
732734  4  0  0  0  0
728735  1  0  0  0  0
735736  1  0  0  0  0
737738  1  0  0  0  0
738739  4  0  0  0  0
735740  1  0  0  0  0
739740  1  0  0  0  0
740741  1  0  0  0  0
740742  1  0  0  0  0
739743  4  0  0  0  0
743744  1  0  0  0  0
745746  4  0  0  0  0
746747  1  0  0  0  0
746748  4  0  0  0  0
748749  1  0  0  0  0
748750  4  0  0  0  0
750751  4  0  0  0  0
751752  1  0  0  0  0
745753  4  0  0  0  0
751753  4  0  0  0  0
753754  1  0  0  0  0
755756  1  0  0  0  0
755757  1  0  0  0  0
755758  1  0  0  0  0
734761  1  0  0  0  0
735761  1  0  0  0  0
737761  1  0  0  0  0
738762  4  0  0  0  0
745762  1  0  0  0  0
743763  4  0  0  0  0
762763  4  0  0  0  0
744764  4  0  0  0  0
759764  1  0  0  0  0
760764  1  0  0  0  0
737765  2  0  0  0  0
744766  2  0  0  0  0
750767  1  0  0  0  0
755767  1  0  0  0  0
M  END
