 xtb: 6.7.1pre (5071a88)
          10032619143D

 59 63  0     0  0            999 V2000
   15.6562   46.0177   43.1191 C   0  0  0  0  0  0  0  0  0  0  0  0
   14.9620   45.4010   43.4024 H   0  0  0  0  0  0  0  0  0  0  0  0
   15.2253   46.8503   42.8707 H   0  0  0  0  0  0  0  0  0  0  0  0
   16.3238   45.4619   41.9355 C   0  0  0  0  0  0  0  0  0  0  0  0
   16.7633   46.1831   41.4563 H   0  0  0  0  0  0  0  0  0  0  0  0
   15.6538   45.0827   41.3462 H   0  0  0  0  0  0  0  0  0  0  0  0
   17.3203   44.4252   42.2554 C   0  0  0  0  0  0  0  0  0  0  0  0
   17.7779   44.1594   41.4422 H   0  0  0  0  0  0  0  0  0  0  0  0
   16.8667   43.6445   42.6111 H   0  0  0  0  0  0  0  0  0  0  0  0
   17.7736   45.7057   44.3934 C   0  0  0  0  0  0  0  0  0  0  0  0
   14.9368   46.6071   46.0590 C   0  0  0  0  0  0  0  0  0  0  0  0
   14.5250   45.8038   45.8331 H   0  0  0  0  0  0  0  0  0  0  0  0
   16.0240   47.0489   45.3364 C   0  0  0  0  0  0  0  0  0  0  0  0
   16.6117   48.2482   45.6674 C   0  0  0  0  0  0  0  0  0  0  0  0
   17.3269   48.5654   45.1644 H   0  0  0  0  0  0  0  0  0  0  0  0
   16.1493   48.9806   46.7350 C   0  0  0  0  0  0  0  0  0  0  0  0
   16.5636   49.7821   46.9611 H   0  0  0  0  0  0  0  0  0  0  0  0
   14.4575   47.3535   47.1160 C   0  0  0  0  0  0  0  0  0  0  0  0
   16.5275   54.6795   47.0271 H   0  0  0  0  0  0  0  0  0  0  0  0
   16.5536   46.2706   44.2529 N   0  0  0  0  0  0  0  0  0  0  0  0
   15.0776   48.5326   47.4683 C   0  0  0  0  0  0  0  0  0  0  0  0
   13.7145   47.0593   47.5919 H   0  0  0  0  0  0  0  0  0  0  0  0
   14.8663   48.6232   49.9378 C   0  0  0  0  0  0  0  0  0  0  0  0
   15.7632   48.8325   50.2413 H   0  0  0  0  0  0  0  0  0  0  0  0
   14.8004   47.6601   49.8417 H   0  0  0  0  0  0  0  0  0  0  0  0
   14.4041   50.6017   48.5149 C   0  0  0  0  0  0  0  0  0  0  0  0
   14.1923   51.2476   49.8201 C   0  0  0  0  0  0  0  0  0  0  0  0
   13.8624   50.5776   50.9635 C   0  0  0  0  0  0  0  0  0  0  0  0
   13.8673   49.0890   50.9797 C   0  0  0  0  0  0  0  0  0  0  0  0
   12.9826   48.7495   50.7714 H   0  0  0  0  0  0  0  0  0  0  0  0
   14.1229   48.7647   51.8570 H   0  0  0  0  0  0  0  0  0  0  0  0
   13.5797   51.5767   51.8958 C   0  0  0  0  0  0  0  0  0  0  0  0
   13.1087   51.4031   53.2880 C   0  0  0  0  0  0  0  0  0  0  0  0
   14.4089   53.7011   49.2520 C   0  0  0  0  0  0  0  0  0  0  0  0
   15.5079   53.6533   48.4243 C   0  0  0  0  0  0  0  0  0  0  0  0
   16.0622   52.9063   48.4305 H   0  0  0  0  0  0  0  0  0  0  0  0
   15.7871   54.7123   47.5874 C   0  0  0  0  0  0  0  0  0  0  0  0
   13.6040   54.8234   49.2748 C   0  0  0  0  0  0  0  0  0  0  0  0
   12.8724   54.8636   49.8479 H   0  0  0  0  0  0  0  0  0  0  0  0
   12.8828   52.4536   54.8823 H   0  0  0  0  0  0  0  0  0  0  0  0
   13.5218   53.1637   53.7779 H   0  0  0  0  0  0  0  0  0  0  0  0
   14.6378   49.2579   48.6266 N   0  0  0  0  0  0  0  0  0  0  0  0
   14.1028   52.5837   50.0872 N   0  0  0  0  0  0  0  0  0  0  0  0
   13.7418   52.7964   51.3701 N   0  0  0  0  0  0  0  0  0  0  0  0
   13.1488   52.4892   54.0541 N   0  0  0  0  0  0  0  0  0  0  0  0
   14.2909   51.1721   47.4492 O   0  0  0  0  0  0  0  0  0  0  0  0
   12.6857   50.3196   53.6528 O   0  0  0  0  0  0  0  0  0  0  0  0
   16.1422   56.7853   45.7660 C   0  0  0  0  0  0  0  0  0  0  0  0
   16.1248   57.5669   45.2085 H   0  0  0  0  0  0  0  0  0  0  0  0
   15.9847   56.0055   45.2289 H   0  0  0  0  0  0  0  0  0  0  0  0
   17.0017   56.7143   46.1886 H   0  0  0  0  0  0  0  0  0  0  0  0
   15.1349   56.8885   46.7570 O   0  0  0  0  0  0  0  0  0  0  0  0
   14.9707   55.8170   47.5823 C   0  0  0  0  0  0  0  0  0  0  0  0
   13.8913   55.8763   48.4464 C   0  0  0  0  0  0  0  0  0  0  0  0
   13.3571   56.6367   48.4651 H   0  0  0  0  0  0  0  0  0  0  0  0
   18.3230   44.9080   43.2496 C   0  0  0  0  0  0  0  0  0  0  0  0
   18.9766   45.4522   42.7841 H   0  0  0  0  0  0  0  0  0  0  0  0
   18.7903   44.1386   43.6101 H   0  0  0  0  0  0  0  0  0  0  0  0
   18.4283   45.8472   45.4224 O   0  0  0  0  0  0  0  0  0  0  0  0
  1  2  1  0  0  0  0
  1  3  1  0  0  0  0
  1  4  1  0  0  0  0
  4  5  1  0  0  0  0
  4  6  1  0  0  0  0
  4  7  1  0  0  0  0
  7  8  1  0  0  0  0
  7  9  1  0  0  0  0
 11 12  1  0  0  0  0
 11 13  4  0  0  0  0
 13 14  4  0  0  0  0
 14 15  1  0  0  0  0
 14 16  4  0  0  0  0
 16 17  1  0  0  0  0
 11 18  4  0  0  0  0
  1 20  1  0  0  0  0
 10 20  4  0  0  0  0
 13 20  1  0  0  0  0
 16 21  4  0  0  0  0
 18 21  4  0  0  0  0
 18 22  1  0  0  0  0
 23 24  1  0  0  0  0
 23 25  1  0  0  0  0
 26 27  1  0  0  0  0
 27 28  4  0  0  0  0
 23 29  1  0  0  0  0
 28 29  1  0  0  0  0
 29 30  1  0  0  0  0
 29 31  1  0  0  0  0
 28 32  4  0  0  0  0
 32 33  1  0  0  0  0
 34 35  4  0  0  0  0
 35 36  1  0  0  0  0
 19 37  1  0  0  0  0
 35 37  4  0  0  0  0
 34 38  4  0  0  0  0
 38 39  1  0  0  0  0
 21 42  1  0  0  0  0
 23 42  1  0  0  0  0
 26 42  4  0  0  0  0
 27 43  4  0  0  0  0
 34 43  1  0  0  0  0
 32 44  4  0  0  0  0
 43 44  4  0  0  0  0
 33 45  4  0  0  0  0
 40 45  1  0  0  0  0
 41 45  1  0  0  0  0
 26 46  2  0  0  0  0
 33 47  2  0  0  0  0
 48 49  1  0  0  0  0
 48 50  1  0  0  0  0
 48 51  1  0  0  0  0
 48 52  1  0  0  0  0
 37 53  4  0  0  0  0
 52 53  1  0  0  0  0
 38 54  4  0  0  0  0
 53 54  4  0  0  0  0
 54 55  1  0  0  0  0
  7 56  1  0  0  0  0
 10 56  1  0  0  0  0
 56 57  1  0  0  0  0
 56 58  1  0  0  0  0
 10 59  2  0  0  0  0
M  END
