 xtb: 6.7.1pre (5071a88)
          10032618553D

118126  0     0  0            999 V2000
   22.8395   41.4089   37.2983 H   0  0  0  0  0  0  0  0  0  0  0  0
   21.6619   40.9937   38.8688 C   0  0  0  0  0  0  0  0  0  0  0  0
   22.0762   40.1922   39.0949 H   0  0  0  0  0  0  0  0  0  0  0  0
   20.5902   41.4417   39.6021 C   0  0  0  0  0  0  0  0  0  0  0  0
   20.3789   41.3511   42.0716 C   0  0  0  0  0  0  0  0  0  0  0  0
   21.2758   41.1418   42.3751 H   0  0  0  0  0  0  0  0  0  0  0  0
   19.9167   39.3726   40.6488 C   0  0  0  0  0  0  0  0  0  0  0  0
   19.7049   38.7267   41.9539 C   0  0  0  0  0  0  0  0  0  0  0  0
   19.3750   39.3967   43.0974 C   0  0  0  0  0  0  0  0  0  0  0  0
   19.3799   40.8853   43.1136 C   0  0  0  0  0  0  0  0  0  0  0  0
   18.4952   41.2248   42.9053 H   0  0  0  0  0  0  0  0  0  0  0  0
   19.6355   41.2096   43.9908 H   0  0  0  0  0  0  0  0  0  0  0  0
   19.0923   38.3976   44.0297 C   0  0  0  0  0  0  0  0  0  0  0  0
   18.6213   38.5712   45.4218 C   0  0  0  0  0  0  0  0  0  0  0  0
   19.9215   36.2732   41.3858 C   0  0  0  0  0  0  0  0  0  0  0  0
   21.0205   36.3210   40.5582 C   0  0  0  0  0  0  0  0  0  0  0  0
   21.5748   37.0680   40.5643 H   0  0  0  0  0  0  0  0  0  0  0  0
   21.2997   35.2620   39.7212 C   0  0  0  0  0  0  0  0  0  0  0  0
   22.0401   35.2948   39.1610 H   0  0  0  0  0  0  0  0  0  0  0  0
   20.4833   34.1573   39.7162 C   0  0  0  0  0  0  0  0  0  0  0  0
   19.4039   34.0980   40.5802 C   0  0  0  0  0  0  0  0  0  0  0  0
   18.8697   33.3376   40.5989 H   0  0  0  0  0  0  0  0  0  0  0  0
   19.1166   35.1509   41.4086 C   0  0  0  0  0  0  0  0  0  0  0  0
   18.3850   35.1107   41.9818 H   0  0  0  0  0  0  0  0  0  0  0  0
   21.6548   33.1890   37.8999 C   0  0  0  0  0  0  0  0  0  0  0  0
   21.6374   32.4074   37.3423 H   0  0  0  0  0  0  0  0  0  0  0  0
   21.4973   33.9688   37.3628 H   0  0  0  0  0  0  0  0  0  0  0  0
   22.5143   33.2600   38.3224 H   0  0  0  0  0  0  0  0  0  0  0  0
   18.3954   37.5207   47.0161 H   0  0  0  0  0  0  0  0  0  0  0  0
   19.0344   36.8106   45.9117 H   0  0  0  0  0  0  0  0  0  0  0  0
   20.1504   40.7164   40.7605 N   0  0  0  0  0  0  0  0  0  0  0  0
   19.6154   37.3906   42.2211 N   0  0  0  0  0  0  0  0  0  0  0  0
   19.2544   37.1779   43.5039 N   0  0  0  0  0  0  0  0  0  0  0  0
   18.6614   37.4851   46.1880 N   0  0  0  0  0  0  0  0  0  0  0  0
   19.8035   38.8022   39.5831 O   0  0  0  0  0  0  0  0  0  0  0  0
   18.1983   39.6547   45.7866 O   0  0  0  0  0  0  0  0  0  0  0  0
   20.6475   33.0858   38.8908 O   0  0  0  0  0  0  0  0  0  0  0  0
   21.1688   43.9566   35.2529 C   0  0  0  0  0  0  0  0  0  0  0  0
   20.4746   44.5733   35.5362 H   0  0  0  0  0  0  0  0  0  0  0  0
   20.7379   43.1240   35.0045 H   0  0  0  0  0  0  0  0  0  0  0  0
   21.8364   44.5124   34.0693 C   0  0  0  0  0  0  0  0  0  0  0  0
   22.2759   43.7912   33.5901 H   0  0  0  0  0  0  0  0  0  0  0  0
   21.1664   44.8916   33.4800 H   0  0  0  0  0  0  0  0  0  0  0  0
   22.8329   45.5491   34.3892 C   0  0  0  0  0  0  0  0  0  0  0  0
   23.2905   45.8149   33.5760 H   0  0  0  0  0  0  0  0  0  0  0  0
   22.3793   46.3298   34.7449 H   0  0  0  0  0  0  0  0  0  0  0  0
   23.8356   45.0663   35.3835 C   0  0  0  0  0  0  0  0  0  0  0  0
   24.4892   44.5221   34.9179 H   0  0  0  0  0  0  0  0  0  0  0  0
   24.3029   45.8357   35.7439 H   0  0  0  0  0  0  0  0  0  0  0  0
   23.2862   44.2686   36.5272 C   0  0  0  0  0  0  0  0  0  0  0  0
   20.4494   43.3672   38.1928 C   0  0  0  0  0  0  0  0  0  0  0  0
   20.0376   44.1705   37.9669 H   0  0  0  0  0  0  0  0  0  0  0  0
   21.5366   42.9254   37.4702 C   0  0  0  0  0  0  0  0  0  0  0  0
   22.1243   41.7261   37.8012 C   0  0  0  0  0  0  0  0  0  0  0  0
   19.9701   42.6208   39.2499 C   0  0  0  0  0  0  0  0  0  0  0  0
   19.2271   42.9150   39.7258 H   0  0  0  0  0  0  0  0  0  0  0  0
   20.3130   42.3142   41.9755 H   0  0  0  0  0  0  0  0  0  0  0  0
   22.0662   43.7037   36.3867 N   0  0  0  0  0  0  0  0  0  0  0  0
   23.9409   44.1271   37.5563 O   0  0  0  0  0  0  0  0  0  0  0  0
   17.7338   38.1452   51.1445 C   0  0  0  0  0  0  0  0  0  0  0  0
   17.0802   37.6010   51.6100 H   0  0  0  0  0  0  0  0  0  0  0  0
   17.2665   38.9146   50.7840 H   0  0  0  0  0  0  0  0  0  0  0  0
   17.6285   37.2060   48.9717 O   0  0  0  0  0  0  0  0  0  0  0  0
   21.0861   27.2362   46.8118 C   0  0  0  0  0  0  0  0  0  0  0  0
   22.1655   27.1769   45.9477 C   0  0  0  0  0  0  0  0  0  0  0  0
   22.6998   26.4165   45.9290 H   0  0  0  0  0  0  0  0  0  0  0  0
   19.9146   26.2679   48.6281 C   0  0  0  0  0  0  0  0  0  0  0  0
   19.9320   25.4863   49.1856 H   0  0  0  0  0  0  0  0  0  0  0  0
   20.0721   27.0477   49.1652 H   0  0  0  0  0  0  0  0  0  0  0  0
   19.0551   26.3389   48.2055 H   0  0  0  0  0  0  0  0  0  0  0  0
   20.9219   26.1647   47.6371 O   0  0  0  0  0  0  0  0  0  0  0  0
   20.9792   34.5206   46.9258 C   0  0  0  0  0  0  0  0  0  0  0  0
   22.3424   35.9939   46.8022 H   0  0  0  0  0  0  0  0  0  0  0  0
   21.1905   34.4300   44.4563 C   0  0  0  0  0  0  0  0  0  0  0  0
   20.2936   34.2207   44.1528 H   0  0  0  0  0  0  0  0  0  0  0  0
   21.2564   35.3931   44.5524 H   0  0  0  0  0  0  0  0  0  0  0  0
   21.6527   32.4515   45.8791 C   0  0  0  0  0  0  0  0  0  0  0  0
   21.8645   31.8056   44.5740 C   0  0  0  0  0  0  0  0  0  0  0  0
   22.1944   32.4756   43.4306 C   0  0  0  0  0  0  0  0  0  0  0  0
   22.1895   33.9642   43.4144 C   0  0  0  0  0  0  0  0  0  0  0  0
   23.0742   34.3037   43.6227 H   0  0  0  0  0  0  0  0  0  0  0  0
   21.9339   34.2885   42.5371 H   0  0  0  0  0  0  0  0  0  0  0  0
   22.4771   31.4765   42.4983 C   0  0  0  0  0  0  0  0  0  0  0  0
   22.9481   31.6501   41.1061 C   0  0  0  0  0  0  0  0  0  0  0  0
   21.6479   29.3521   45.1421 C   0  0  0  0  0  0  0  0  0  0  0  0
   20.5489   29.3999   45.9698 C   0  0  0  0  0  0  0  0  0  0  0  0
   19.9946   30.1469   45.9636 H   0  0  0  0  0  0  0  0  0  0  0  0
   20.2697   28.3409   46.8067 C   0  0  0  0  0  0  0  0  0  0  0  0
   22.4528   28.2298   45.1193 C   0  0  0  0  0  0  0  0  0  0  0  0
   23.1844   28.1896   44.5461 H   0  0  0  0  0  0  0  0  0  0  0  0
   23.1740   30.5996   39.5118 H   0  0  0  0  0  0  0  0  0  0  0  0
   22.5350   29.8895   40.6162 H   0  0  0  0  0  0  0  0  0  0  0  0
   21.4190   33.7953   45.7674 N   0  0  0  0  0  0  0  0  0  0  0  0
   21.9540   30.4695   44.3069 N   0  0  0  0  0  0  0  0  0  0  0  0
   22.3150   30.2568   43.0240 N   0  0  0  0  0  0  0  0  0  0  0  0
   22.9080   30.5640   40.3399 N   0  0  0  0  0  0  0  0  0  0  0  0
   21.7659   31.8811   46.9449 O   0  0  0  0  0  0  0  0  0  0  0  0
   23.3711   32.7336   40.7413 O   0  0  0  0  0  0  0  0  0  0  0  0
   20.4006   37.0355   51.2750 C   0  0  0  0  0  0  0  0  0  0  0  0
   21.0948   37.6522   50.9917 H   0  0  0  0  0  0  0  0  0  0  0  0
   20.8315   36.2029   51.5234 H   0  0  0  0  0  0  0  0  0  0  0  0
   19.7330   37.5913   52.4586 C   0  0  0  0  0  0  0  0  0  0  0  0
   19.2935   36.8701   52.9378 H   0  0  0  0  0  0  0  0  0  0  0  0
   20.4030   37.9705   53.0479 H   0  0  0  0  0  0  0  0  0  0  0  0
   18.7365   38.6280   52.1387 C   0  0  0  0  0  0  0  0  0  0  0  0
   18.2789   38.8938   52.9519 H   0  0  0  0  0  0  0  0  0  0  0  0
   19.1901   39.4087   51.7830 H   0  0  0  0  0  0  0  0  0  0  0  0
   18.2833   37.3475   50.0007 C   0  0  0  0  0  0  0  0  0  0  0  0
   21.1200   36.4461   48.3351 C   0  0  0  0  0  0  0  0  0  0  0  0
   21.5319   37.2494   48.5610 H   0  0  0  0  0  0  0  0  0  0  0  0
   20.0328   36.0043   49.0577 C   0  0  0  0  0  0  0  0  0  0  0  0
   19.4451   34.8050   48.7267 C   0  0  0  0  0  0  0  0  0  0  0  0
   18.7299   34.4878   49.2297 H   0  0  0  0  0  0  0  0  0  0  0  0
   19.9075   34.0726   47.6591 C   0  0  0  0  0  0  0  0  0  0  0  0
   19.4932   33.2711   47.4330 H   0  0  0  0  0  0  0  0  0  0  0  0
   21.5993   35.6997   47.2781 C   0  0  0  0  0  0  0  0  0  0  0  0
   19.5293   28.3737   47.3670 H   0  0  0  0  0  0  0  0  0  0  0  0
   19.5032   36.7826   50.1412 N   0  0  0  0  0  0  0  0  0  0  0  0
  2  3  1  0  0  0  0
  2  4  4  0  0  0  0
  5  6  1  0  0  0  0
  7  8  1  0  0  0  0
  8  9  4  0  0  0  0
  5 10  1  0  0  0  0
  9 10  1  0  0  0  0
 10 11  1  0  0  0  0
 10 12  1  0  0  0  0
  9 13  4  0  0  0  0
 13 14  1  0  0  0  0
 15 16  4  0  0  0  0
 16 17  1  0  0  0  0
 16 18  4  0  0  0  0
 18 19  1  0  0  0  0
 18 20  4  0  0  0  0
 20 21  4  0  0  0  0
 21 22  1  0  0  0  0
 15 23  4  0  0  0  0
 21 23  4  0  0  0  0
 23 24  1  0  0  0  0
 25 26  1  0  0  0  0
 25 27  1  0  0  0  0
 25 28  1  0  0  0  0
  4 31  1  0  0  0  0
  5 31  1  0  0  0  0
  7 31  1  0  0  0  0
  8 32  4  0  0  0  0
 15 32  1  0  0  0  0
 13 33  4  0  0  0  0
 32 33  4  0  0  0  0
 14 34  4  0  0  0  0
 29 34  1  0  0  0  0
 30 34  1  0  0  0  0
  7 35  2  0  0  0  0
 14 36  2  0  0  0  0
 20 37  1  0  0  0  0
 25 37  1  0  0  0  0
 38 39  1  0  0  0  0
 38 40  1  0  0  0  0
 38 41  1  0  0  0  0
 41 42  1  0  0  0  0
 41 43  1  0  0  0  0
 41 44  1  0  0  0  0
 44 45  1  0  0  0  0
 44 46  1  0  0  0  0
 44 47  1  0  0  0  0
 47 48  1  0  0  0  0
 47 49  1  0  0  0  0
 47 50  1  0  0  0  0
 51 52  1  0  0  0  0
 51 53  4  0  0  0  0
  1 54  1  0  0  0  0
  2 54  4  0  0  0  0
 53 54  4  0  0  0  0
  4 55  4  0  0  0  0
 51 55  4  0  0  0  0
 55 56  1  0  0  0  0
  5 57  1  0  0  0  0
 38 58  1  0  0  0  0
 50 58  4  0  0  0  0
 53 58  1  0  0  0  0
 50 59  2  0  0  0  0
 60 61  1  0  0  0  0
 60 62  1  0  0  0  0
 64 65  4  0  0  0  0
 65 66  1  0  0  0  0
 67 68  1  0  0  0  0
 67 69  1  0  0  0  0
 67 70  1  0  0  0  0
 64 71  1  0  0  0  0
 67 71  1  0  0  0  0
 74 75  1  0  0  0  0
 74 76  1  0  0  0  0
 77 78  1  0  0  0  0
 78 79  4  0  0  0  0
 74 80  1  0  0  0  0
 79 80  1  0  0  0  0
 80 81  1  0  0  0  0
 80 82  1  0  0  0  0
 79 83  4  0  0  0  0
 83 84  1  0  0  0  0
 85 86  4  0  0  0  0
 86 87  1  0  0  0  0
 64 88  4  0  0  0  0
 86 88  4  0  0  0  0
 65 89  4  0  0  0  0
 85 89  4  0  0  0  0
 89 90  1  0  0  0  0
 72 93  1  0  0  0  0
 74 93  1  0  0  0  0
 77 93  4  0  0  0  0
 78 94  4  0  0  0  0
 85 94  1  0  0  0  0
 83 95  4  0  0  0  0
 94 95  4  0  0  0  0
 84 96  4  0  0  0  0
 91 96  1  0  0  0  0
 92 96  1  0  0  0  0
 77 97  2  0  0  0  0
 84 98  2  0  0  0  0
 99100  1  0  0  0  0
 99101  1  0  0  0  0
 99102  1  0  0  0  0
102103  1  0  0  0  0
102104  1  0  0  0  0
 60105  1  0  0  0  0
102105  1  0  0  0  0
105106  1  0  0  0  0
105107  1  0  0  0  0
 60108  1  0  0  0  0
 63108  2  0  0  0  0
109110  1  0  0  0  0
109111  4  0  0  0  0
111112  4  0  0  0  0
112113  1  0  0  0  0
 72114  4  0  0  0  0
112114  4  0  0  0  0
114115  1  0  0  0  0
 72116  4  0  0  0  0
 73116  1  0  0  0  0
109116  4  0  0  0  0
 88117  1  0  0  0  0
 99118  1  0  0  0  0
108118  4  0  0  0  0
111118  1  0  0  0  0
M  END
