 xtb: 6.7.1pre (5071a88)
          10032618553D

177189  0     0  0            999 V2000
   22.8395   41.4089   37.2983 H   0  0  0  0  0  0  0  0  0  0  0  0
   21.6619   40.9937   38.8688 C   0  0  0  0  0  0  0  0  0  0  0  0
   22.0762   40.1922   39.0949 H   0  0  0  0  0  0  0  0  0  0  0  0
   20.5902   41.4417   39.6021 C   0  0  0  0  0  0  0  0  0  0  0  0
   20.3789   41.3511   42.0716 C   0  0  0  0  0  0  0  0  0  0  0  0
   21.2758   41.1418   42.3751 H   0  0  0  0  0  0  0  0  0  0  0  0
   19.9167   39.3726   40.6488 C   0  0  0  0  0  0  0  0  0  0  0  0
   19.7049   38.7267   41.9539 C   0  0  0  0  0  0  0  0  0  0  0  0
   19.3750   39.3967   43.0974 C   0  0  0  0  0  0  0  0  0  0  0  0
   19.3799   40.8853   43.1136 C   0  0  0  0  0  0  0  0  0  0  0  0
   18.4952   41.2248   42.9053 H   0  0  0  0  0  0  0  0  0  0  0  0
   19.6355   41.2096   43.9908 H   0  0  0  0  0  0  0  0  0  0  0  0
   19.0923   38.3976   44.0297 C   0  0  0  0  0  0  0  0  0  0  0  0
   18.6213   38.5712   45.4218 C   0  0  0  0  0  0  0  0  0  0  0  0
   19.9215   36.2732   41.3858 C   0  0  0  0  0  0  0  0  0  0  0  0
   21.0205   36.3210   40.5582 C   0  0  0  0  0  0  0  0  0  0  0  0
   21.5748   37.0680   40.5643 H   0  0  0  0  0  0  0  0  0  0  0  0
   21.2997   35.2620   39.7212 C   0  0  0  0  0  0  0  0  0  0  0  0
   22.0401   35.2948   39.1610 H   0  0  0  0  0  0  0  0  0  0  0  0
   20.4833   34.1573   39.7162 C   0  0  0  0  0  0  0  0  0  0  0  0
   19.4039   34.0980   40.5802 C   0  0  0  0  0  0  0  0  0  0  0  0
   18.8697   33.3376   40.5989 H   0  0  0  0  0  0  0  0  0  0  0  0
   19.1166   35.1509   41.4086 C   0  0  0  0  0  0  0  0  0  0  0  0
   18.3850   35.1107   41.9818 H   0  0  0  0  0  0  0  0  0  0  0  0
   21.6548   33.1890   37.8999 C   0  0  0  0  0  0  0  0  0  0  0  0
   21.6374   32.4074   37.3423 H   0  0  0  0  0  0  0  0  0  0  0  0
   21.4973   33.9688   37.3628 H   0  0  0  0  0  0  0  0  0  0  0  0
   22.5143   33.2600   38.3224 H   0  0  0  0  0  0  0  0  0  0  0  0
   18.3954   37.5207   47.0161 H   0  0  0  0  0  0  0  0  0  0  0  0
   19.0344   36.8106   45.9117 H   0  0  0  0  0  0  0  0  0  0  0  0
   20.1504   40.7164   40.7605 N   0  0  0  0  0  0  0  0  0  0  0  0
   19.6154   37.3906   42.2211 N   0  0  0  0  0  0  0  0  0  0  0  0
   19.2544   37.1779   43.5039 N   0  0  0  0  0  0  0  0  0  0  0  0
   18.6614   37.4851   46.1880 N   0  0  0  0  0  0  0  0  0  0  0  0
   19.8035   38.8022   39.5831 O   0  0  0  0  0  0  0  0  0  0  0  0
   18.1983   39.6547   45.7866 O   0  0  0  0  0  0  0  0  0  0  0  0
   20.6475   33.0858   38.8908 O   0  0  0  0  0  0  0  0  0  0  0  0
   21.1688   43.9566   35.2529 C   0  0  0  0  0  0  0  0  0  0  0  0
   20.4746   44.5733   35.5362 H   0  0  0  0  0  0  0  0  0  0  0  0
   20.7379   43.1240   35.0045 H   0  0  0  0  0  0  0  0  0  0  0  0
   21.8364   44.5124   34.0693 C   0  0  0  0  0  0  0  0  0  0  0  0
   22.2759   43.7912   33.5901 H   0  0  0  0  0  0  0  0  0  0  0  0
   21.1664   44.8916   33.4800 H   0  0  0  0  0  0  0  0  0  0  0  0
   22.8329   45.5491   34.3892 C   0  0  0  0  0  0  0  0  0  0  0  0
   23.2905   45.8149   33.5760 H   0  0  0  0  0  0  0  0  0  0  0  0
   22.3793   46.3298   34.7449 H   0  0  0  0  0  0  0  0  0  0  0  0
   23.8356   45.0663   35.3835 C   0  0  0  0  0  0  0  0  0  0  0  0
   24.4892   44.5221   34.9179 H   0  0  0  0  0  0  0  0  0  0  0  0
   24.3029   45.8357   35.7439 H   0  0  0  0  0  0  0  0  0  0  0  0
   23.2862   44.2686   36.5272 C   0  0  0  0  0  0  0  0  0  0  0  0
   20.4494   43.3672   38.1928 C   0  0  0  0  0  0  0  0  0  0  0  0
   20.0376   44.1705   37.9669 H   0  0  0  0  0  0  0  0  0  0  0  0
   21.5366   42.9254   37.4702 C   0  0  0  0  0  0  0  0  0  0  0  0
   22.1243   41.7261   37.8012 C   0  0  0  0  0  0  0  0  0  0  0  0
   19.9701   42.6208   39.2499 C   0  0  0  0  0  0  0  0  0  0  0  0
   19.2271   42.9150   39.7258 H   0  0  0  0  0  0  0  0  0  0  0  0
   20.3130   42.3142   41.9755 H   0  0  0  0  0  0  0  0  0  0  0  0
   22.0662   43.7037   36.3867 N   0  0  0  0  0  0  0  0  0  0  0  0
   23.9409   44.1271   37.5563 O   0  0  0  0  0  0  0  0  0  0  0  0
   25.9132   25.2544   43.4089 C   0  0  0  0  0  0  0  0  0  0  0  0
   26.6074   24.6377   43.1255 H   0  0  0  0  0  0  0  0  0  0  0  0
   26.3441   26.0870   43.6573 H   0  0  0  0  0  0  0  0  0  0  0  0
   25.2456   24.6986   44.5924 C   0  0  0  0  0  0  0  0  0  0  0  0
   24.8061   25.4198   45.0716 H   0  0  0  0  0  0  0  0  0  0  0  0
   25.9156   24.3194   45.1817 H   0  0  0  0  0  0  0  0  0  0  0  0
   24.2491   23.6619   44.2726 C   0  0  0  0  0  0  0  0  0  0  0  0
   23.7915   23.3961   45.0858 H   0  0  0  0  0  0  0  0  0  0  0  0
   24.7027   22.8812   43.9169 H   0  0  0  0  0  0  0  0  0  0  0  0
   23.2464   24.1447   43.2783 C   0  0  0  0  0  0  0  0  0  0  0  0
   22.5928   24.6889   43.7438 H   0  0  0  0  0  0  0  0  0  0  0  0
   22.7791   23.3753   42.9178 H   0  0  0  0  0  0  0  0  0  0  0  0
   23.7959   24.9424   42.1345 C   0  0  0  0  0  0  0  0  0  0  0  0
   26.6326   25.8438   40.4690 C   0  0  0  0  0  0  0  0  0  0  0  0
   27.0445   25.0405   40.6949 H   0  0  0  0  0  0  0  0  0  0  0  0
   25.5454   26.2856   41.1915 C   0  0  0  0  0  0  0  0  0  0  0  0
   24.9577   27.4849   40.8605 C   0  0  0  0  0  0  0  0  0  0  0  0
   27.1119   26.5902   39.4119 C   0  0  0  0  0  0  0  0  0  0  0  0
   27.8550   26.2960   38.9360 H   0  0  0  0  0  0  0  0  0  0  0  0
   26.7690   26.8968   36.6863 H   0  0  0  0  0  0  0  0  0  0  0  0
   25.0158   25.5073   42.2750 N   0  0  0  0  0  0  0  0  0  0  0  0
   23.1411   25.0839   41.1055 O   0  0  0  0  0  0  0  0  0  0  0  0
   24.2425   27.8021   41.3635 H   0  0  0  0  0  0  0  0  0  0  0  0
   25.4201   28.2173   39.7929 C   0  0  0  0  0  0  0  0  0  0  0  0
   25.0058   29.0188   39.5669 H   0  0  0  0  0  0  0  0  0  0  0  0
   26.4918   27.7693   39.0596 C   0  0  0  0  0  0  0  0  0  0  0  0
   26.7031   27.8599   36.5901 C   0  0  0  0  0  0  0  0  0  0  0  0
   25.8062   28.0692   36.2867 H   0  0  0  0  0  0  0  0  0  0  0  0
   27.1653   29.8384   38.0130 C   0  0  0  0  0  0  0  0  0  0  0  0
   27.3771   30.4843   36.7078 C   0  0  0  0  0  0  0  0  0  0  0  0
   27.7070   29.8143   35.5644 C   0  0  0  0  0  0  0  0  0  0  0  0
   27.7021   28.3257   35.5482 C   0  0  0  0  0  0  0  0  0  0  0  0
   28.5868   27.9862   35.7565 H   0  0  0  0  0  0  0  0  0  0  0  0
   27.4465   28.0014   34.6710 H   0  0  0  0  0  0  0  0  0  0  0  0
   27.9897   30.8134   34.6321 C   0  0  0  0  0  0  0  0  0  0  0  0
   28.4607   30.6398   33.2399 C   0  0  0  0  0  0  0  0  0  0  0  0
   27.1605   32.9378   37.2759 C   0  0  0  0  0  0  0  0  0  0  0  0
   26.0615   32.8900   38.1036 C   0  0  0  0  0  0  0  0  0  0  0  0
   25.5072   32.1430   38.0975 H   0  0  0  0  0  0  0  0  0  0  0  0
   25.7823   33.9490   38.9406 C   0  0  0  0  0  0  0  0  0  0  0  0
   25.0419   33.9162   39.5008 H   0  0  0  0  0  0  0  0  0  0  0  0
   26.5987   35.0537   38.9456 C   0  0  0  0  0  0  0  0  0  0  0  0
   27.6781   35.1130   38.0816 C   0  0  0  0  0  0  0  0  0  0  0  0
   28.2124   35.8734   38.0628 H   0  0  0  0  0  0  0  0  0  0  0  0
   27.9654   34.0601   37.2531 C   0  0  0  0  0  0  0  0  0  0  0  0
   28.6970   34.1003   36.6800 H   0  0  0  0  0  0  0  0  0  0  0  0
   25.4272   36.0220   40.7619 C   0  0  0  0  0  0  0  0  0  0  0  0
   25.4446   36.8036   41.3194 H   0  0  0  0  0  0  0  0  0  0  0  0
   25.5847   35.2422   41.2990 H   0  0  0  0  0  0  0  0  0  0  0  0
   24.5677   35.9510   40.3393 H   0  0  0  0  0  0  0  0  0  0  0  0
   28.6866   31.6903   31.6456 H   0  0  0  0  0  0  0  0  0  0  0  0
   28.0476   32.4004   32.7500 H   0  0  0  0  0  0  0  0  0  0  0  0
   26.9316   28.4946   37.9013 N   0  0  0  0  0  0  0  0  0  0  0  0
   27.4666   31.8204   36.4407 N   0  0  0  0  0  0  0  0  0  0  0  0
   27.8276   32.0331   35.1579 N   0  0  0  0  0  0  0  0  0  0  0  0
   28.4206   31.7259   32.4738 N   0  0  0  0  0  0  0  0  0  0  0  0
   27.2785   30.4088   39.0787 O   0  0  0  0  0  0  0  0  0  0  0  0
   28.8837   29.5563   32.8751 O   0  0  0  0  0  0  0  0  0  0  0  0
   26.4345   36.1252   39.7709 O   0  0  0  0  0  0  0  0  0  0  0  0
   15.6924   39.0966   43.4089 C   0  0  0  0  0  0  0  0  0  0  0  0
   16.3866   38.4799   43.1255 H   0  0  0  0  0  0  0  0  0  0  0  0
   16.1233   39.9292   43.6573 H   0  0  0  0  0  0  0  0  0  0  0  0
   15.0248   38.5408   44.5924 C   0  0  0  0  0  0  0  0  0  0  0  0
   14.5853   39.2620   45.0716 H   0  0  0  0  0  0  0  0  0  0  0  0
   15.6948   38.1616   45.1817 H   0  0  0  0  0  0  0  0  0  0  0  0
   14.0283   37.5041   44.2726 C   0  0  0  0  0  0  0  0  0  0  0  0
   13.5707   37.2383   45.0858 H   0  0  0  0  0  0  0  0  0  0  0  0
   14.4819   36.7234   43.9169 H   0  0  0  0  0  0  0  0  0  0  0  0
   13.0256   37.9869   43.2783 C   0  0  0  0  0  0  0  0  0  0  0  0
   12.3720   38.5311   43.7438 H   0  0  0  0  0  0  0  0  0  0  0  0
   12.5583   37.2175   42.9178 H   0  0  0  0  0  0  0  0  0  0  0  0
   13.5751   38.7846   42.1345 C   0  0  0  0  0  0  0  0  0  0  0  0
   16.4118   39.6860   40.4690 C   0  0  0  0  0  0  0  0  0  0  0  0
   16.8237   38.8827   40.6949 H   0  0  0  0  0  0  0  0  0  0  0  0
   15.3246   40.1278   41.1915 C   0  0  0  0  0  0  0  0  0  0  0  0
   14.7369   41.3271   40.8605 C   0  0  0  0  0  0  0  0  0  0  0  0
   16.8911   40.4324   39.4119 C   0  0  0  0  0  0  0  0  0  0  0  0
   17.6342   40.1382   38.9360 H   0  0  0  0  0  0  0  0  0  0  0  0
   16.5482   40.7390   36.6863 H   0  0  0  0  0  0  0  0  0  0  0  0
   14.7950   39.3495   42.2750 N   0  0  0  0  0  0  0  0  0  0  0  0
   12.9203   38.9261   41.1055 O   0  0  0  0  0  0  0  0  0  0  0  0
   14.0217   41.6443   41.3635 H   0  0  0  0  0  0  0  0  0  0  0  0
   15.1993   42.0595   39.7929 C   0  0  0  0  0  0  0  0  0  0  0  0
   14.7850   42.8610   39.5669 H   0  0  0  0  0  0  0  0  0  0  0  0
   16.2710   41.6115   39.0596 C   0  0  0  0  0  0  0  0  0  0  0  0
   16.4823   41.7021   36.5901 C   0  0  0  0  0  0  0  0  0  0  0  0
   15.5854   41.9114   36.2867 H   0  0  0  0  0  0  0  0  0  0  0  0
   16.9445   43.6806   38.0130 C   0  0  0  0  0  0  0  0  0  0  0  0
   17.1563   44.3265   36.7078 C   0  0  0  0  0  0  0  0  0  0  0  0
   17.4862   43.6565   35.5644 C   0  0  0  0  0  0  0  0  0  0  0  0
   17.4813   42.1679   35.5482 C   0  0  0  0  0  0  0  0  0  0  0  0
   18.3660   41.8284   35.7565 H   0  0  0  0  0  0  0  0  0  0  0  0
   17.2257   41.8436   34.6710 H   0  0  0  0  0  0  0  0  0  0  0  0
   17.7689   44.6556   34.6321 C   0  0  0  0  0  0  0  0  0  0  0  0
   18.2399   44.4820   33.2399 C   0  0  0  0  0  0  0  0  0  0  0  0
   16.9397   46.7800   37.2759 C   0  0  0  0  0  0  0  0  0  0  0  0
   15.8407   46.7322   38.1036 C   0  0  0  0  0  0  0  0  0  0  0  0
   15.2864   45.9852   38.0975 H   0  0  0  0  0  0  0  0  0  0  0  0
   15.5615   47.7912   38.9406 C   0  0  0  0  0  0  0  0  0  0  0  0
   14.8211   47.7584   39.5008 H   0  0  0  0  0  0  0  0  0  0  0  0
   16.3779   48.8959   38.9456 C   0  0  0  0  0  0  0  0  0  0  0  0
   17.4573   48.9552   38.0816 C   0  0  0  0  0  0  0  0  0  0  0  0
   17.9916   49.7156   38.0628 H   0  0  0  0  0  0  0  0  0  0  0  0
   17.7446   47.9023   37.2531 C   0  0  0  0  0  0  0  0  0  0  0  0
   18.4762   47.9425   36.6800 H   0  0  0  0  0  0  0  0  0  0  0  0
   15.2064   49.8642   40.7619 C   0  0  0  0  0  0  0  0  0  0  0  0
   15.2238   50.6458   41.3194 H   0  0  0  0  0  0  0  0  0  0  0  0
   15.3639   49.0844   41.2990 H   0  0  0  0  0  0  0  0  0  0  0  0
   14.3469   49.7932   40.3393 H   0  0  0  0  0  0  0  0  0  0  0  0
   18.4658   45.5325   31.6456 H   0  0  0  0  0  0  0  0  0  0  0  0
   17.8268   46.2426   32.7500 H   0  0  0  0  0  0  0  0  0  0  0  0
   16.7108   42.3368   37.9013 N   0  0  0  0  0  0  0  0  0  0  0  0
   17.2458   45.6626   36.4407 N   0  0  0  0  0  0  0  0  0  0  0  0
   17.6068   45.8753   35.1579 N   0  0  0  0  0  0  0  0  0  0  0  0
   18.1998   45.5681   32.4738 N   0  0  0  0  0  0  0  0  0  0  0  0
   17.0577   44.2510   39.0787 O   0  0  0  0  0  0  0  0  0  0  0  0
   18.6629   43.3985   32.8751 O   0  0  0  0  0  0  0  0  0  0  0  0
   16.2137   49.9674   39.7709 O   0  0  0  0  0  0  0  0  0  0  0  0
  2  3  1  0  0  0  0
  2  4  4  0  0  0  0
  5  6  1  0  0  0  0
  7  8  1  0  0  0  0
  8  9  4  0  0  0  0
  5 10  1  0  0  0  0
  9 10  1  0  0  0  0
 10 11  1  0  0  0  0
 10 12  1  0  0  0  0
  9 13  4  0  0  0  0
 13 14  1  0  0  0  0
 15 16  4  0  0  0  0
 16 17  1  0  0  0  0
 16 18  4  0  0  0  0
 18 19  1  0  0  0  0
 18 20  4  0  0  0  0
 20 21  4  0  0  0  0
 21 22  1  0  0  0  0
 15 23  4  0  0  0  0
 21 23  4  0  0  0  0
 23 24  1  0  0  0  0
 25 26  1  0  0  0  0
 25 27  1  0  0  0  0
 25 28  1  0  0  0  0
  4 31  1  0  0  0  0
  5 31  1  0  0  0  0
  7 31  4  0  0  0  0
  8 32  4  0  0  0  0
 15 32  1  0  0  0  0
 13 33  4  0  0  0  0
 32 33  4  0  0  0  0
 14 34  4  0  0  0  0
 29 34  1  0  0  0  0
 30 34  1  0  0  0  0
  7 35  2  0  0  0  0
 14 36  2  0  0  0  0
 20 37  1  0  0  0  0
 25 37  1  0  0  0  0
 38 39  1  0  0  0  0
 38 40  1  0  0  0  0
 38 41  1  0  0  0  0
 41 42  1  0  0  0  0
 41 43  1  0  0  0  0
 41 44  1  0  0  0  0
 44 45  1  0  0  0  0
 44 46  1  0  0  0  0
 44 47  1  0  0  0  0
 47 48  1  0  0  0  0
 47 49  1  0  0  0  0
 47 50  1  0  0  0  0
 51 52  1  0  0  0  0
 51 53  4  0  0  0  0
  1 54  1  0  0  0  0
  2 54  4  0  0  0  0
 53 54  4  0  0  0  0
  4 55  4  0  0  0  0
 51 55  4  0  0  0  0
 55 56  1  0  0  0  0
  5 57  1  0  0  0  0
 38 58  1  0  0  0  0
 50 58  4  0  0  0  0
 53 58  1  0  0  0  0
 50 59  2  0  0  0  0
 60 61  1  0  0  0  0
 60 62  1  0  0  0  0
 60 63  1  0  0  0  0
 63 64  1  0  0  0  0
 63 65  1  0  0  0  0
 63 66  1  0  0  0  0
 66 67  1  0  0  0  0
 66 68  1  0  0  0  0
 66 69  1  0  0  0  0
 69 70  1  0  0  0  0
 69 71  1  0  0  0  0
 69 72  1  0  0  0  0
 73 74  1  0  0  0  0
 73 75  4  0  0  0  0
 75 76  4  0  0  0  0
 73 77  4  0  0  0  0
 77 78  1  0  0  0  0
 60 80  1  0  0  0  0
 72 80  4  0  0  0  0
 75 80  1  0  0  0  0
 72 81  2  0  0  0  0
 76 82  1  0  0  0  0
 76 83  4  0  0  0  0
 83 84  1  0  0  0  0
 77 85  4  0  0  0  0
 83 85  4  0  0  0  0
 79 86  1  0  0  0  0
 86 87  1  0  0  0  0
 88 89  1  0  0  0  0
 89 90  4  0  0  0  0
 86 91  1  0  0  0  0
 90 91  1  0  0  0  0
 91 92  1  0  0  0  0
 91 93  1  0  0  0  0
 90 94  4  0  0  0  0
 94 95  1  0  0  0  0
 96 97  4  0  0  0  0
 97 98  1  0  0  0  0
 97 99  4  0  0  0  0
 99100  1  0  0  0  0
 99101  4  0  0  0  0
101102  4  0  0  0  0
102103  1  0  0  0  0
 96104  4  0  0  0  0
102104  4  0  0  0  0
104105  1  0  0  0  0
106107  1  0  0  0  0
106108  1  0  0  0  0
106109  1  0  0  0  0
 85112  1  0  0  0  0
 86112  1  0  0  0  0
 88112  4  0  0  0  0
 89113  4  0  0  0  0
 96113  1  0  0  0  0
 94114  4  0  0  0  0
113114  4  0  0  0  0
 95115  4  0  0  0  0
110115  1  0  0  0  0
111115  1  0  0  0  0
 88116  2  0  0  0  0
 95117  2  0  0  0  0
101118  1  0  0  0  0
106118  1  0  0  0  0
119120  1  0  0  0  0
119121  1  0  0  0  0
119122  1  0  0  0  0
122123  1  0  0  0  0
122124  1  0  0  0  0
122125  1  0  0  0  0
125126  1  0  0  0  0
125127  1  0  0  0  0
125128  1  0  0  0  0
128129  1  0  0  0  0
128130  1  0  0  0  0
128131  1  0  0  0  0
132133  1  0  0  0  0
132134  4  0  0  0  0
134135  4  0  0  0  0
132136  4  0  0  0  0
136137  1  0  0  0  0
119139  1  0  0  0  0
131139  4  0  0  0  0
134139  1  0  0  0  0
131140  2  0  0  0  0
135141  1  0  0  0  0
135142  4  0  0  0  0
142143  1  0  0  0  0
136144  4  0  0  0  0
142144  4  0  0  0  0
138145  1  0  0  0  0
145146  1  0  0  0  0
147148  1  0  0  0  0
148149  4  0  0  0  0
145150  1  0  0  0  0
149150  1  0  0  0  0
150151  1  0  0  0  0
150152  1  0  0  0  0
149153  4  0  0  0  0
153154  1  0  0  0  0
155156  4  0  0  0  0
156157  1  0  0  0  0
156158  4  0  0  0  0
158159  1  0  0  0  0
158160  4  0  0  0  0
160161  4  0  0  0  0
161162  1  0  0  0  0
155163  4  0  0  0  0
161163  4  0  0  0  0
163164  1  0  0  0  0
165166  1  0  0  0  0
165167  1  0  0  0  0
165168  1  0  0  0  0
144171  1  0  0  0  0
145171  1  0  0  0  0
147171  4  0  0  0  0
148172  4  0  0  0  0
155172  1  0  0  0  0
153173  4  0  0  0  0
172173  4  0  0  0  0
154174  4  0  0  0  0
169174  1  0  0  0  0
170174  1  0  0  0  0
147175  2  0  0  0  0
154176  2  0  0  0  0
160177  1  0  0  0  0
165177  1  0  0  0  0
M  END
