 xtb: 6.7.1pre (5071a88)
          10032617063D

413441  0     0  0            999 V2000
   15.6562   32.1755   43.1191 C   0  0  0  0  0  0  0  0  0  0  0  0
   14.9620   31.5588   43.4024 H   0  0  0  0  0  0  0  0  0  0  0  0
   15.2253   33.0081   42.8707 H   0  0  0  0  0  0  0  0  0  0  0  0
   16.3238   31.6197   41.9355 C   0  0  0  0  0  0  0  0  0  0  0  0
   16.7633   32.3409   41.4563 H   0  0  0  0  0  0  0  0  0  0  0  0
   15.6538   31.2405   41.3462 H   0  0  0  0  0  0  0  0  0  0  0  0
   17.3203   30.5830   42.2554 C   0  0  0  0  0  0  0  0  0  0  0  0
   17.7779   30.3172   41.4422 H   0  0  0  0  0  0  0  0  0  0  0  0
   16.8667   29.8023   42.6111 H   0  0  0  0  0  0  0  0  0  0  0  0
   17.7736   31.8635   44.3934 C   0  0  0  0  0  0  0  0  0  0  0  0
   14.9368   32.7649   46.0590 C   0  0  0  0  0  0  0  0  0  0  0  0
   14.5250   31.9616   45.8331 H   0  0  0  0  0  0  0  0  0  0  0  0
   16.0240   33.2067   45.3364 C   0  0  0  0  0  0  0  0  0  0  0  0
   16.6117   34.4060   45.6674 C   0  0  0  0  0  0  0  0  0  0  0  0
   17.3269   34.7232   45.1644 H   0  0  0  0  0  0  0  0  0  0  0  0
   16.1493   35.1384   46.7350 C   0  0  0  0  0  0  0  0  0  0  0  0
   16.5636   35.9399   46.9611 H   0  0  0  0  0  0  0  0  0  0  0  0
   14.4575   33.5113   47.1160 C   0  0  0  0  0  0  0  0  0  0  0  0
   16.5275   40.8373   47.0271 H   0  0  0  0  0  0  0  0  0  0  0  0
   16.5536   32.4284   44.2529 N   0  0  0  0  0  0  0  0  0  0  0  0
   15.0776   34.6904   47.4683 C   0  0  0  0  0  0  0  0  0  0  0  0
   13.7145   33.2171   47.5919 H   0  0  0  0  0  0  0  0  0  0  0  0
   14.8663   34.7810   49.9378 C   0  0  0  0  0  0  0  0  0  0  0  0
   15.7632   34.9903   50.2413 H   0  0  0  0  0  0  0  0  0  0  0  0
   14.8004   33.8179   49.8417 H   0  0  0  0  0  0  0  0  0  0  0  0
   14.4041   36.7595   48.5149 C   0  0  0  0  0  0  0  0  0  0  0  0
   14.1923   37.4054   49.8201 C   0  0  0  0  0  0  0  0  0  0  0  0
   13.8624   36.7354   50.9635 C   0  0  0  0  0  0  0  0  0  0  0  0
   13.8673   35.2468   50.9797 C   0  0  0  0  0  0  0  0  0  0  0  0
   12.9826   34.9073   50.7714 H   0  0  0  0  0  0  0  0  0  0  0  0
   14.1229   34.9225   51.8570 H   0  0  0  0  0  0  0  0  0  0  0  0
   13.5797   37.7345   51.8958 C   0  0  0  0  0  0  0  0  0  0  0  0
   13.1087   37.5609   53.2880 C   0  0  0  0  0  0  0  0  0  0  0  0
   14.4089   39.8589   49.2520 C   0  0  0  0  0  0  0  0  0  0  0  0
   15.5079   39.8111   48.4243 C   0  0  0  0  0  0  0  0  0  0  0  0
   16.0622   39.0641   48.4305 H   0  0  0  0  0  0  0  0  0  0  0  0
   15.7871   40.8701   47.5874 C   0  0  0  0  0  0  0  0  0  0  0  0
   13.6040   40.9812   49.2748 C   0  0  0  0  0  0  0  0  0  0  0  0
   12.8724   41.0214   49.8479 H   0  0  0  0  0  0  0  0  0  0  0  0
   12.8828   38.6114   54.8823 H   0  0  0  0  0  0  0  0  0  0  0  0
   13.5218   39.3215   53.7779 H   0  0  0  0  0  0  0  0  0  0  0  0
   14.6378   35.4157   48.6266 N   0  0  0  0  0  0  0  0  0  0  0  0
   14.1028   38.7415   50.0872 N   0  0  0  0  0  0  0  0  0  0  0  0
   13.7418   38.9542   51.3701 N   0  0  0  0  0  0  0  0  0  0  0  0
   13.1488   38.6470   54.0541 N   0  0  0  0  0  0  0  0  0  0  0  0
   14.2909   37.3299   47.4492 O   0  0  0  0  0  0  0  0  0  0  0  0
   12.6857   36.4774   53.6528 O   0  0  0  0  0  0  0  0  0  0  0  0
   16.1422   42.9431   45.7660 C   0  0  0  0  0  0  0  0  0  0  0  0
   16.1248   43.7247   45.2085 H   0  0  0  0  0  0  0  0  0  0  0  0
   15.9847   42.1633   45.2289 H   0  0  0  0  0  0  0  0  0  0  0  0
   17.0017   42.8721   46.1886 H   0  0  0  0  0  0  0  0  0  0  0  0
   15.1349   43.0463   46.7570 O   0  0  0  0  0  0  0  0  0  0  0  0
   14.9707   41.9748   47.5823 C   0  0  0  0  0  0  0  0  0  0  0  0
   13.8913   42.0341   48.4464 C   0  0  0  0  0  0  0  0  0  0  0  0
   13.3571   42.7945   48.4651 H   0  0  0  0  0  0  0  0  0  0  0  0
   18.3230   31.0658   43.2496 C   0  0  0  0  0  0  0  0  0  0  0  0
   18.9766   31.6100   42.7841 H   0  0  0  0  0  0  0  0  0  0  0  0
   18.7903   30.2964   43.6101 H   0  0  0  0  0  0  0  0  0  0  0  0
   18.4283   32.0050   45.4224 O   0  0  0  0  0  0  0  0  0  0  0  0
   26.6814   32.1755   27.3867 C   0  0  0  0  0  0  0  0  0  0  0  0
   25.9872   31.5588   27.6701 H   0  0  0  0  0  0  0  0  0  0  0  0
   26.2505   33.0081   27.1383 H   0  0  0  0  0  0  0  0  0  0  0  0
   27.3490   31.6197   26.2032 C   0  0  0  0  0  0  0  0  0  0  0  0
   27.7885   32.3409   25.7240 H   0  0  0  0  0  0  0  0  0  0  0  0
   26.6790   31.2405   25.6138 H   0  0  0  0  0  0  0  0  0  0  0  0
   28.3455   30.5830   26.5230 C   0  0  0  0  0  0  0  0  0  0  0  0
   28.8031   30.3172   25.7098 H   0  0  0  0  0  0  0  0  0  0  0  0
   27.8919   29.8023   26.8787 H   0  0  0  0  0  0  0  0  0  0  0  0
   28.7988   31.8635   28.6610 C   0  0  0  0  0  0  0  0  0  0  0  0
   25.9620   32.7649   30.3266 C   0  0  0  0  0  0  0  0  0  0  0  0
   25.5502   31.9616   30.1007 H   0  0  0  0  0  0  0  0  0  0  0  0
   27.0492   33.2067   29.6040 C   0  0  0  0  0  0  0  0  0  0  0  0
   27.6369   34.4060   29.9350 C   0  0  0  0  0  0  0  0  0  0  0  0
   28.3521   34.7232   29.4321 H   0  0  0  0  0  0  0  0  0  0  0  0
   27.1745   35.1384   31.0026 C   0  0  0  0  0  0  0  0  0  0  0  0
   27.5888   35.9399   31.2287 H   0  0  0  0  0  0  0  0  0  0  0  0
   25.4827   33.5113   31.3837 C   0  0  0  0  0  0  0  0  0  0  0  0
   27.5527   40.8373   31.2948 H   0  0  0  0  0  0  0  0  0  0  0  0
   27.5788   32.4284   28.5205 N   0  0  0  0  0  0  0  0  0  0  0  0
   26.1028   34.6904   31.7359 C   0  0  0  0  0  0  0  0  0  0  0  0
   24.7397   33.2171   31.8596 H   0  0  0  0  0  0  0  0  0  0  0  0
   25.8915   34.7810   34.2054 C   0  0  0  0  0  0  0  0  0  0  0  0
   26.7884   34.9903   34.5089 H   0  0  0  0  0  0  0  0  0  0  0  0
   25.8256   33.8179   34.1093 H   0  0  0  0  0  0  0  0  0  0  0  0
   25.4293   36.7595   32.7826 C   0  0  0  0  0  0  0  0  0  0  0  0
   25.2175   37.4054   34.0878 C   0  0  0  0  0  0  0  0  0  0  0  0
   24.8876   36.7354   35.2312 C   0  0  0  0  0  0  0  0  0  0  0  0
   24.8925   35.2468   35.2474 C   0  0  0  0  0  0  0  0  0  0  0  0
   24.0078   34.9073   35.0391 H   0  0  0  0  0  0  0  0  0  0  0  0
   25.1481   34.9225   36.1246 H   0  0  0  0  0  0  0  0  0  0  0  0
   24.6049   37.7345   36.1635 C   0  0  0  0  0  0  0  0  0  0  0  0
   24.1339   37.5609   37.5556 C   0  0  0  0  0  0  0  0  0  0  0  0
   25.4341   39.8589   33.5197 C   0  0  0  0  0  0  0  0  0  0  0  0
   26.5331   39.8111   32.6920 C   0  0  0  0  0  0  0  0  0  0  0  0
   27.0874   39.0641   32.6981 H   0  0  0  0  0  0  0  0  0  0  0  0
   26.8123   40.8701   31.8550 C   0  0  0  0  0  0  0  0  0  0  0  0
   24.6292   40.9812   33.5425 C   0  0  0  0  0  0  0  0  0  0  0  0
   23.8976   41.0214   34.1156 H   0  0  0  0  0  0  0  0  0  0  0  0
   23.9080   38.6114   39.1500 H   0  0  0  0  0  0  0  0  0  0  0  0
   24.5470   39.3215   38.0455 H   0  0  0  0  0  0  0  0  0  0  0  0
   25.6630   35.4157   32.8943 N   0  0  0  0  0  0  0  0  0  0  0  0
   25.1280   38.7415   34.3549 N   0  0  0  0  0  0  0  0  0  0  0  0
   24.7670   38.9542   35.6377 N   0  0  0  0  0  0  0  0  0  0  0  0
   24.1740   38.6470   38.3218 N   0  0  0  0  0  0  0  0  0  0  0  0
   25.3161   37.3299   31.7169 O   0  0  0  0  0  0  0  0  0  0  0  0
   23.7109   36.4774   37.9205 O   0  0  0  0  0  0  0  0  0  0  0  0
   27.1674   42.9431   30.0337 C   0  0  0  0  0  0  0  0  0  0  0  0
   27.1500   43.7247   29.4761 H   0  0  0  0  0  0  0  0  0  0  0  0
   27.0099   42.1633   29.4966 H   0  0  0  0  0  0  0  0  0  0  0  0
   28.0269   42.8721   30.4563 H   0  0  0  0  0  0  0  0  0  0  0  0
   26.1601   43.0463   31.0247 O   0  0  0  0  0  0  0  0  0  0  0  0
   25.9959   41.9748   31.8500 C   0  0  0  0  0  0  0  0  0  0  0  0
   24.9165   42.0341   32.7140 C   0  0  0  0  0  0  0  0  0  0  0  0
   24.3823   42.7945   32.7327 H   0  0  0  0  0  0  0  0  0  0  0  0
   29.3482   31.0658   27.5173 C   0  0  0  0  0  0  0  0  0  0  0  0
   30.0018   31.6100   27.0518 H   0  0  0  0  0  0  0  0  0  0  0  0
   29.8155   30.2964   27.8777 H   0  0  0  0  0  0  0  0  0  0  0  0
   29.4535   32.0050   29.6901 O   0  0  0  0  0  0  0  0  0  0  0  0
   18.5382   38.1452   35.4121 C   0  0  0  0  0  0  0  0  0  0  0  0
   17.8846   37.6010   35.8776 H   0  0  0  0  0  0  0  0  0  0  0  0
   18.0709   38.9146   35.0517 H   0  0  0  0  0  0  0  0  0  0  0  0
   18.4329   37.2060   33.2393 O   0  0  0  0  0  0  0  0  0  0  0  0
   21.8905   27.2362   31.0794 C   0  0  0  0  0  0  0  0  0  0  0  0
   22.9699   27.1769   30.2154 C   0  0  0  0  0  0  0  0  0  0  0  0
   23.5042   26.4165   30.1967 H   0  0  0  0  0  0  0  0  0  0  0  0
   20.7190   26.2679   32.8957 C   0  0  0  0  0  0  0  0  0  0  0  0
   20.7364   25.4863   33.4533 H   0  0  0  0  0  0  0  0  0  0  0  0
   20.8765   27.0477   33.4328 H   0  0  0  0  0  0  0  0  0  0  0  0
   19.8595   26.3389   32.4731 H   0  0  0  0  0  0  0  0  0  0  0  0
   21.7263   26.1647   31.9047 O   0  0  0  0  0  0  0  0  0  0  0  0
   21.7836   34.5206   31.1935 C   0  0  0  0  0  0  0  0  0  0  0  0
   23.1467   35.9939   31.0698 H   0  0  0  0  0  0  0  0  0  0  0  0
   21.9949   34.4300   28.7240 C   0  0  0  0  0  0  0  0  0  0  0  0
   21.0980   34.2207   28.4205 H   0  0  0  0  0  0  0  0  0  0  0  0
   22.0608   35.3931   28.8201 H   0  0  0  0  0  0  0  0  0  0  0  0
   22.4571   32.4515   30.1468 C   0  0  0  0  0  0  0  0  0  0  0  0
   22.6689   31.8056   28.8416 C   0  0  0  0  0  0  0  0  0  0  0  0
   22.9988   32.4756   27.6982 C   0  0  0  0  0  0  0  0  0  0  0  0
   22.9939   33.9642   27.6820 C   0  0  0  0  0  0  0  0  0  0  0  0
   23.8786   34.3037   27.8903 H   0  0  0  0  0  0  0  0  0  0  0  0
   22.7383   34.2885   26.8048 H   0  0  0  0  0  0  0  0  0  0  0  0
   23.2815   31.4765   26.7659 C   0  0  0  0  0  0  0  0  0  0  0  0
   23.7525   31.6501   25.3738 C   0  0  0  0  0  0  0  0  0  0  0  0
   22.4523   29.3521   29.4097 C   0  0  0  0  0  0  0  0  0  0  0  0
   21.3533   29.3999   30.2374 C   0  0  0  0  0  0  0  0  0  0  0  0
   20.7990   30.1469   30.2313 H   0  0  0  0  0  0  0  0  0  0  0  0
   21.0741   28.3409   31.0744 C   0  0  0  0  0  0  0  0  0  0  0  0
   23.2572   28.2298   29.3869 C   0  0  0  0  0  0  0  0  0  0  0  0
   23.9888   28.1896   28.8138 H   0  0  0  0  0  0  0  0  0  0  0  0
   23.9784   30.5996   23.7794 H   0  0  0  0  0  0  0  0  0  0  0  0
   23.3394   29.8895   24.8839 H   0  0  0  0  0  0  0  0  0  0  0  0
   22.2234   33.7953   30.0351 N   0  0  0  0  0  0  0  0  0  0  0  0
   22.7584   30.4695   28.5745 N   0  0  0  0  0  0  0  0  0  0  0  0
   23.1194   30.2568   27.2917 N   0  0  0  0  0  0  0  0  0  0  0  0
   23.7124   30.5640   24.6076 N   0  0  0  0  0  0  0  0  0  0  0  0
   22.5703   31.8811   31.2125 O   0  0  0  0  0  0  0  0  0  0  0  0
   24.1755   32.7336   25.0089 O   0  0  0  0  0  0  0  0  0  0  0  0
   21.2050   37.0355   35.5427 C   0  0  0  0  0  0  0  0  0  0  0  0
   21.8992   37.6522   35.2593 H   0  0  0  0  0  0  0  0  0  0  0  0
   21.6359   36.2029   35.7911 H   0  0  0  0  0  0  0  0  0  0  0  0
   20.5374   37.5913   36.7262 C   0  0  0  0  0  0  0  0  0  0  0  0
   20.0979   36.8701   37.2054 H   0  0  0  0  0  0  0  0  0  0  0  0
   21.2074   37.9705   37.3156 H   0  0  0  0  0  0  0  0  0  0  0  0
   19.5409   38.6280   36.4064 C   0  0  0  0  0  0  0  0  0  0  0  0
   19.0833   38.8938   37.2196 H   0  0  0  0  0  0  0  0  0  0  0  0
   19.9945   39.4087   36.0507 H   0  0  0  0  0  0  0  0  0  0  0  0
   19.0877   37.3475   34.2684 C   0  0  0  0  0  0  0  0  0  0  0  0
   21.9244   36.4461   32.6028 C   0  0  0  0  0  0  0  0  0  0  0  0
   22.3363   37.2494   32.8287 H   0  0  0  0  0  0  0  0  0  0  0  0
   20.8372   36.0043   33.3254 C   0  0  0  0  0  0  0  0  0  0  0  0
   20.2495   34.8050   32.9944 C   0  0  0  0  0  0  0  0  0  0  0  0
   19.5343   34.4878   33.4973 H   0  0  0  0  0  0  0  0  0  0  0  0
   20.7119   34.0726   31.9268 C   0  0  0  0  0  0  0  0  0  0  0  0
   20.2976   33.2711   31.7007 H   0  0  0  0  0  0  0  0  0  0  0  0
   22.4037   35.6997   31.5457 C   0  0  0  0  0  0  0  0  0  0  0  0
   20.3337   28.3737   31.6346 H   0  0  0  0  0  0  0  0  0  0  0  0
   20.3076   36.7826   34.4088 N   0  0  0  0  0  0  0  0  0  0  0  0
   18.5382   51.9874   35.4121 C   0  0  0  0  0  0  0  0  0  0  0  0
   17.8846   51.4432   35.8776 H   0  0  0  0  0  0  0  0  0  0  0  0
   18.0709   52.7568   35.0517 H   0  0  0  0  0  0  0  0  0  0  0  0
   18.4329   51.0482   33.2393 O   0  0  0  0  0  0  0  0  0  0  0  0
   21.8905   41.0784   31.0794 C   0  0  0  0  0  0  0  0  0  0  0  0
   22.9699   41.0191   30.2154 C   0  0  0  0  0  0  0  0  0  0  0  0
   23.5042   40.2587   30.1967 H   0  0  0  0  0  0  0  0  0  0  0  0
   20.7190   40.1101   32.8957 C   0  0  0  0  0  0  0  0  0  0  0  0
   20.7364   39.3285   33.4533 H   0  0  0  0  0  0  0  0  0  0  0  0
   20.8765   40.8899   33.4328 H   0  0  0  0  0  0  0  0  0  0  0  0
   19.8595   40.1811   32.4731 H   0  0  0  0  0  0  0  0  0  0  0  0
   21.7263   40.0069   31.9047 O   0  0  0  0  0  0  0  0  0  0  0  0
   21.7836   48.3628   31.1935 C   0  0  0  0  0  0  0  0  0  0  0  0
   23.1467   49.8361   31.0698 H   0  0  0  0  0  0  0  0  0  0  0  0
   21.9949   48.2722   28.7240 C   0  0  0  0  0  0  0  0  0  0  0  0
   21.0980   48.0629   28.4205 H   0  0  0  0  0  0  0  0  0  0  0  0
   22.0608   49.2353   28.8201 H   0  0  0  0  0  0  0  0  0  0  0  0
   22.4571   46.2937   30.1468 C   0  0  0  0  0  0  0  0  0  0  0  0
   22.6689   45.6478   28.8416 C   0  0  0  0  0  0  0  0  0  0  0  0
   22.9988   46.3178   27.6982 C   0  0  0  0  0  0  0  0  0  0  0  0
   22.9939   47.8064   27.6820 C   0  0  0  0  0  0  0  0  0  0  0  0
   23.8786   48.1459   27.8903 H   0  0  0  0  0  0  0  0  0  0  0  0
   22.7383   48.1307   26.8048 H   0  0  0  0  0  0  0  0  0  0  0  0
   23.2815   45.3187   26.7659 C   0  0  0  0  0  0  0  0  0  0  0  0
   23.7525   45.4923   25.3738 C   0  0  0  0  0  0  0  0  0  0  0  0
   22.4523   43.1943   29.4097 C   0  0  0  0  0  0  0  0  0  0  0  0
   21.3533   43.2421   30.2374 C   0  0  0  0  0  0  0  0  0  0  0  0
   20.7990   43.9891   30.2313 H   0  0  0  0  0  0  0  0  0  0  0  0
   21.0741   42.1831   31.0744 C   0  0  0  0  0  0  0  0  0  0  0  0
   23.2572   42.0720   29.3869 C   0  0  0  0  0  0  0  0  0  0  0  0
   23.9888   42.0318   28.8138 H   0  0  0  0  0  0  0  0  0  0  0  0
   23.9784   44.4418   23.7794 H   0  0  0  0  0  0  0  0  0  0  0  0
   23.3394   43.7317   24.8839 H   0  0  0  0  0  0  0  0  0  0  0  0
   22.2234   47.6375   30.0351 N   0  0  0  0  0  0  0  0  0  0  0  0
   22.7584   44.3117   28.5745 N   0  0  0  0  0  0  0  0  0  0  0  0
   23.1194   44.0990   27.2917 N   0  0  0  0  0  0  0  0  0  0  0  0
   23.7124   44.4062   24.6076 N   0  0  0  0  0  0  0  0  0  0  0  0
   22.5703   45.7233   31.2125 O   0  0  0  0  0  0  0  0  0  0  0  0
   24.1755   46.5758   25.0089 O   0  0  0  0  0  0  0  0  0  0  0  0
   21.2050   50.8777   35.5427 C   0  0  0  0  0  0  0  0  0  0  0  0
   21.8992   51.4944   35.2593 H   0  0  0  0  0  0  0  0  0  0  0  0
   21.6359   50.0451   35.7911 H   0  0  0  0  0  0  0  0  0  0  0  0
   20.5374   51.4335   36.7262 C   0  0  0  0  0  0  0  0  0  0  0  0
   20.0979   50.7123   37.2054 H   0  0  0  0  0  0  0  0  0  0  0  0
   21.2074   51.8127   37.3156 H   0  0  0  0  0  0  0  0  0  0  0  0
   19.5409   52.4702   36.4064 C   0  0  0  0  0  0  0  0  0  0  0  0
   19.0833   52.7360   37.2196 H   0  0  0  0  0  0  0  0  0  0  0  0
   19.9945   53.2509   36.0507 H   0  0  0  0  0  0  0  0  0  0  0  0
   19.0877   51.1897   34.2684 C   0  0  0  0  0  0  0  0  0  0  0  0
   21.9244   50.2883   32.6028 C   0  0  0  0  0  0  0  0  0  0  0  0
   22.3363   51.0916   32.8287 H   0  0  0  0  0  0  0  0  0  0  0  0
   20.8372   49.8465   33.3254 C   0  0  0  0  0  0  0  0  0  0  0  0
   20.2495   48.6472   32.9944 C   0  0  0  0  0  0  0  0  0  0  0  0
   19.5343   48.3300   33.4973 H   0  0  0  0  0  0  0  0  0  0  0  0
   20.7119   47.9148   31.9268 C   0  0  0  0  0  0  0  0  0  0  0  0
   20.2976   47.1133   31.7007 H   0  0  0  0  0  0  0  0  0  0  0  0
   22.4037   49.5419   31.5457 C   0  0  0  0  0  0  0  0  0  0  0  0
   20.3337   42.2159   31.6346 H   0  0  0  0  0  0  0  0  0  0  0  0
   20.3076   50.6248   34.4088 N   0  0  0  0  0  0  0  0  0  0  0  0
   15.6924   25.2544   43.4089 C   0  0  0  0  0  0  0  0  0  0  0  0
   16.3866   24.6377   43.1255 H   0  0  0  0  0  0  0  0  0  0  0  0
   16.1233   26.0870   43.6573 H   0  0  0  0  0  0  0  0  0  0  0  0
   15.0248   24.6986   44.5924 C   0  0  0  0  0  0  0  0  0  0  0  0
   14.5853   25.4198   45.0716 H   0  0  0  0  0  0  0  0  0  0  0  0
   15.6948   24.3194   45.1817 H   0  0  0  0  0  0  0  0  0  0  0  0
   14.0283   23.6619   44.2726 C   0  0  0  0  0  0  0  0  0  0  0  0
   13.5707   23.3961   45.0858 H   0  0  0  0  0  0  0  0  0  0  0  0
   14.4819   22.8812   43.9169 H   0  0  0  0  0  0  0  0  0  0  0  0
   13.0256   24.1447   43.2783 C   0  0  0  0  0  0  0  0  0  0  0  0
   12.3720   24.6889   43.7438 H   0  0  0  0  0  0  0  0  0  0  0  0
   12.5583   23.3753   42.9178 H   0  0  0  0  0  0  0  0  0  0  0  0
   13.5751   24.9424   42.1345 C   0  0  0  0  0  0  0  0  0  0  0  0
   16.4118   25.8438   40.4690 C   0  0  0  0  0  0  0  0  0  0  0  0
   16.8237   25.0405   40.6949 H   0  0  0  0  0  0  0  0  0  0  0  0
   15.3246   26.2856   41.1915 C   0  0  0  0  0  0  0  0  0  0  0  0
   14.7369   27.4849   40.8605 C   0  0  0  0  0  0  0  0  0  0  0  0
   16.8911   26.5902   39.4119 C   0  0  0  0  0  0  0  0  0  0  0  0
   17.6342   26.2960   38.9360 H   0  0  0  0  0  0  0  0  0  0  0  0
   16.5482   26.8968   36.6863 H   0  0  0  0  0  0  0  0  0  0  0  0
   14.7950   25.5073   42.2750 N   0  0  0  0  0  0  0  0  0  0  0  0
   12.9203   25.0839   41.1055 O   0  0  0  0  0  0  0  0  0  0  0  0
   14.0217   27.8021   41.3635 H   0  0  0  0  0  0  0  0  0  0  0  0
   15.1993   28.2173   39.7929 C   0  0  0  0  0  0  0  0  0  0  0  0
   14.7850   29.0188   39.5669 H   0  0  0  0  0  0  0  0  0  0  0  0
   16.2710   27.7693   39.0596 C   0  0  0  0  0  0  0  0  0  0  0  0
   16.4823   27.8599   36.5901 C   0  0  0  0  0  0  0  0  0  0  0  0
   15.5854   28.0692   36.2867 H   0  0  0  0  0  0  0  0  0  0  0  0
   16.9445   29.8384   38.0130 C   0  0  0  0  0  0  0  0  0  0  0  0
   17.1563   30.4843   36.7078 C   0  0  0  0  0  0  0  0  0  0  0  0
   17.4862   29.8143   35.5644 C   0  0  0  0  0  0  0  0  0  0  0  0
   17.4813   28.3257   35.5482 C   0  0  0  0  0  0  0  0  0  0  0  0
   18.3660   27.9862   35.7565 H   0  0  0  0  0  0  0  0  0  0  0  0
   17.2257   28.0014   34.6710 H   0  0  0  0  0  0  0  0  0  0  0  0
   17.7689   30.8134   34.6321 C   0  0  0  0  0  0  0  0  0  0  0  0
   18.2399   30.6398   33.2399 C   0  0  0  0  0  0  0  0  0  0  0  0
   16.9397   32.9378   37.2759 C   0  0  0  0  0  0  0  0  0  0  0  0
   15.8407   32.8900   38.1036 C   0  0  0  0  0  0  0  0  0  0  0  0
   15.2864   32.1430   38.0975 H   0  0  0  0  0  0  0  0  0  0  0  0
   15.5615   33.9490   38.9406 C   0  0  0  0  0  0  0  0  0  0  0  0
   14.8211   33.9162   39.5008 H   0  0  0  0  0  0  0  0  0  0  0  0
   16.3779   35.0537   38.9456 C   0  0  0  0  0  0  0  0  0  0  0  0
   17.4573   35.1130   38.0816 C   0  0  0  0  0  0  0  0  0  0  0  0
   17.9916   35.8734   38.0628 H   0  0  0  0  0  0  0  0  0  0  0  0
   17.7446   34.0601   37.2531 C   0  0  0  0  0  0  0  0  0  0  0  0
   18.4762   34.1003   36.6800 H   0  0  0  0  0  0  0  0  0  0  0  0
   15.2064   36.0220   40.7619 C   0  0  0  0  0  0  0  0  0  0  0  0
   15.2238   36.8036   41.3194 H   0  0  0  0  0  0  0  0  0  0  0  0
   15.3639   35.2422   41.2990 H   0  0  0  0  0  0  0  0  0  0  0  0
   14.3469   35.9510   40.3393 H   0  0  0  0  0  0  0  0  0  0  0  0
   18.4658   31.6903   31.6456 H   0  0  0  0  0  0  0  0  0  0  0  0
   17.8268   32.4004   32.7500 H   0  0  0  0  0  0  0  0  0  0  0  0
   16.7108   28.4946   37.9013 N   0  0  0  0  0  0  0  0  0  0  0  0
   17.2458   31.8204   36.4407 N   0  0  0  0  0  0  0  0  0  0  0  0
   17.6068   32.0331   35.1579 N   0  0  0  0  0  0  0  0  0  0  0  0
   18.1998   31.7259   32.4738 N   0  0  0  0  0  0  0  0  0  0  0  0
   17.0577   30.4088   39.0787 O   0  0  0  0  0  0  0  0  0  0  0  0
   18.6629   29.5563   32.8751 O   0  0  0  0  0  0  0  0  0  0  0  0
   16.2137   36.1252   39.7709 O   0  0  0  0  0  0  0  0  0  0  0  0
   22.8395   27.5667   37.2983 H   0  0  0  0  0  0  0  0  0  0  0  0
   21.6619   27.1515   38.8688 C   0  0  0  0  0  0  0  0  0  0  0  0
   22.0762   26.3500   39.0949 H   0  0  0  0  0  0  0  0  0  0  0  0
   20.5902   27.5995   39.6021 C   0  0  0  0  0  0  0  0  0  0  0  0
   20.3789   27.5089   42.0716 C   0  0  0  0  0  0  0  0  0  0  0  0
   21.2758   27.2996   42.3751 H   0  0  0  0  0  0  0  0  0  0  0  0
   19.9167   25.5304   40.6488 C   0  0  0  0  0  0  0  0  0  0  0  0
   19.7049   24.8845   41.9539 C   0  0  0  0  0  0  0  0  0  0  0  0
   19.3750   25.5545   43.0974 C   0  0  0  0  0  0  0  0  0  0  0  0
   19.3799   27.0431   43.1136 C   0  0  0  0  0  0  0  0  0  0  0  0
   18.4952   27.3826   42.9053 H   0  0  0  0  0  0  0  0  0  0  0  0
   19.6355   27.3674   43.9908 H   0  0  0  0  0  0  0  0  0  0  0  0
   19.0923   24.5554   44.0297 C   0  0  0  0  0  0  0  0  0  0  0  0
   18.6213   24.7290   45.4218 C   0  0  0  0  0  0  0  0  0  0  0  0
   19.9215   22.4310   41.3858 C   0  0  0  0  0  0  0  0  0  0  0  0
   21.0205   22.4788   40.5582 C   0  0  0  0  0  0  0  0  0  0  0  0
   21.5748   23.2258   40.5643 H   0  0  0  0  0  0  0  0  0  0  0  0
   21.2997   21.4198   39.7212 C   0  0  0  0  0  0  0  0  0  0  0  0
   22.0401   21.4526   39.1610 H   0  0  0  0  0  0  0  0  0  0  0  0
   20.4833   20.3151   39.7162 C   0  0  0  0  0  0  0  0  0  0  0  0
   19.4039   20.2558   40.5802 C   0  0  0  0  0  0  0  0  0  0  0  0
   18.8697   19.4954   40.5989 H   0  0  0  0  0  0  0  0  0  0  0  0
   19.1166   21.3087   41.4086 C   0  0  0  0  0  0  0  0  0  0  0  0
   18.3850   21.2685   41.9818 H   0  0  0  0  0  0  0  0  0  0  0  0
   21.6548   19.3468   37.8999 C   0  0  0  0  0  0  0  0  0  0  0  0
   21.6374   18.5652   37.3423 H   0  0  0  0  0  0  0  0  0  0  0  0
   21.4973   20.1266   37.3628 H   0  0  0  0  0  0  0  0  0  0  0  0
   22.5143   19.4178   38.3224 H   0  0  0  0  0  0  0  0  0  0  0  0
   18.3954   23.6785   47.0161 H   0  0  0  0  0  0  0  0  0  0  0  0
   19.0344   22.9684   45.9117 H   0  0  0  0  0  0  0  0  0  0  0  0
   20.1504   26.8742   40.7605 N   0  0  0  0  0  0  0  0  0  0  0  0
   19.6154   23.5484   42.2211 N   0  0  0  0  0  0  0  0  0  0  0  0
   19.2544   23.3357   43.5039 N   0  0  0  0  0  0  0  0  0  0  0  0
   18.6614   23.6429   46.1880 N   0  0  0  0  0  0  0  0  0  0  0  0
   19.8035   24.9600   39.5831 O   0  0  0  0  0  0  0  0  0  0  0  0
   18.1983   25.8125   45.7866 O   0  0  0  0  0  0  0  0  0  0  0  0
   20.6475   19.2436   38.8908 O   0  0  0  0  0  0  0  0  0  0  0  0
   21.1688   30.1144   35.2529 C   0  0  0  0  0  0  0  0  0  0  0  0
   20.4746   30.7311   35.5362 H   0  0  0  0  0  0  0  0  0  0  0  0
   20.7379   29.2818   35.0045 H   0  0  0  0  0  0  0  0  0  0  0  0
   21.8364   30.6702   34.0693 C   0  0  0  0  0  0  0  0  0  0  0  0
   22.2759   29.9490   33.5901 H   0  0  0  0  0  0  0  0  0  0  0  0
   21.1664   31.0494   33.4800 H   0  0  0  0  0  0  0  0  0  0  0  0
   22.8329   31.7069   34.3892 C   0  0  0  0  0  0  0  0  0  0  0  0
   23.2905   31.9727   33.5760 H   0  0  0  0  0  0  0  0  0  0  0  0
   22.3793   32.4876   34.7449 H   0  0  0  0  0  0  0  0  0  0  0  0
   23.8356   31.2241   35.3835 C   0  0  0  0  0  0  0  0  0  0  0  0
   24.4892   30.6799   34.9179 H   0  0  0  0  0  0  0  0  0  0  0  0
   24.3029   31.9935   35.7439 H   0  0  0  0  0  0  0  0  0  0  0  0
   23.2862   30.4264   36.5272 C   0  0  0  0  0  0  0  0  0  0  0  0
   20.4494   29.5250   38.1928 C   0  0  0  0  0  0  0  0  0  0  0  0
   20.0376   30.3283   37.9669 H   0  0  0  0  0  0  0  0  0  0  0  0
   21.5366   29.0832   37.4702 C   0  0  0  0  0  0  0  0  0  0  0  0
   22.1243   27.8839   37.8012 C   0  0  0  0  0  0  0  0  0  0  0  0
   19.9701   28.7786   39.2499 C   0  0  0  0  0  0  0  0  0  0  0  0
   19.2271   29.0728   39.7258 H   0  0  0  0  0  0  0  0  0  0  0  0
   20.3130   28.4720   41.9755 H   0  0  0  0  0  0  0  0  0  0  0  0
   22.0662   29.8615   36.3867 N   0  0  0  0  0  0  0  0  0  0  0  0
   23.9409   30.2849   37.5563 O   0  0  0  0  0  0  0  0  0  0  0  0
   22.8395   55.2511   37.2983 H   0  0  0  0  0  0  0  0  0  0  0  0
   21.6619   54.8359   38.8688 C   0  0  0  0  0  0  0  0  0  0  0  0
   22.0762   54.0344   39.0949 H   0  0  0  0  0  0  0  0  0  0  0  0
   20.5902   55.2839   39.6021 C   0  0  0  0  0  0  0  0  0  0  0  0
   20.3789   55.1933   42.0716 C   0  0  0  0  0  0  0  0  0  0  0  0
   21.2758   54.9840   42.3751 H   0  0  0  0  0  0  0  0  0  0  0  0
   19.9167   53.2148   40.6488 C   0  0  0  0  0  0  0  0  0  0  0  0
   19.7049   52.5689   41.9539 C   0  0  0  0  0  0  0  0  0  0  0  0
   19.3750   53.2389   43.0974 C   0  0  0  0  0  0  0  0  0  0  0  0
   19.3799   54.7275   43.1136 C   0  0  0  0  0  0  0  0  0  0  0  0
   18.4952   55.0670   42.9053 H   0  0  0  0  0  0  0  0  0  0  0  0
   19.6355   55.0518   43.9908 H   0  0  0  0  0  0  0  0  0  0  0  0
   19.0923   52.2398   44.0297 C   0  0  0  0  0  0  0  0  0  0  0  0
   18.6213   52.4134   45.4218 C   0  0  0  0  0  0  0  0  0  0  0  0
   19.9215   50.1154   41.3858 C   0  0  0  0  0  0  0  0  0  0  0  0
   21.0205   50.1632   40.5582 C   0  0  0  0  0  0  0  0  0  0  0  0
   21.5748   50.9102   40.5643 H   0  0  0  0  0  0  0  0  0  0  0  0
   21.2997   49.1042   39.7212 C   0  0  0  0  0  0  0  0  0  0  0  0
   22.0401   49.1370   39.1610 H   0  0  0  0  0  0  0  0  0  0  0  0
   20.4833   47.9995   39.7162 C   0  0  0  0  0  0  0  0  0  0  0  0
   19.4039   47.9402   40.5802 C   0  0  0  0  0  0  0  0  0  0  0  0
   18.8697   47.1798   40.5989 H   0  0  0  0  0  0  0  0  0  0  0  0
   19.1166   48.9931   41.4086 C   0  0  0  0  0  0  0  0  0  0  0  0
   18.3850   48.9529   41.9818 H   0  0  0  0  0  0  0  0  0  0  0  0
   21.6548   47.0312   37.8999 C   0  0  0  0  0  0  0  0  0  0  0  0
   21.6374   46.2496   37.3423 H   0  0  0  0  0  0  0  0  0  0  0  0
   21.4973   47.8110   37.3628 H   0  0  0  0  0  0  0  0  0  0  0  0
   22.5143   47.1022   38.3224 H   0  0  0  0  0  0  0  0  0  0  0  0
   18.3954   51.3629   47.0161 H   0  0  0  0  0  0  0  0  0  0  0  0
   19.0344   50.6528   45.9117 H   0  0  0  0  0  0  0  0  0  0  0  0
   20.1504   54.5586   40.7605 N   0  0  0  0  0  0  0  0  0  0  0  0
   19.6154   51.2328   42.2211 N   0  0  0  0  0  0  0  0  0  0  0  0
   19.2544   51.0201   43.5039 N   0  0  0  0  0  0  0  0  0  0  0  0
   18.6614   51.3273   46.1880 N   0  0  0  0  0  0  0  0  0  0  0  0
   19.8035   52.6444   39.5831 O   0  0  0  0  0  0  0  0  0  0  0  0
   18.1983   53.4969   45.7866 O   0  0  0  0  0  0  0  0  0  0  0  0
   20.6475   46.9280   38.8908 O   0  0  0  0  0  0  0  0  0  0  0  0
   21.1688   57.7988   35.2529 C   0  0  0  0  0  0  0  0  0  0  0  0
   20.4746   58.4155   35.5362 H   0  0  0  0  0  0  0  0  0  0  0  0
   20.7379   56.9662   35.0045 H   0  0  0  0  0  0  0  0  0  0  0  0
   21.8364   58.3546   34.0693 C   0  0  0  0  0  0  0  0  0  0  0  0
   22.2759   57.6334   33.5901 H   0  0  0  0  0  0  0  0  0  0  0  0
   21.1664   58.7338   33.4800 H   0  0  0  0  0  0  0  0  0  0  0  0
   22.8329   59.3913   34.3892 C   0  0  0  0  0  0  0  0  0  0  0  0
   23.2905   59.6571   33.5760 H   0  0  0  0  0  0  0  0  0  0  0  0
   22.3793   60.1720   34.7449 H   0  0  0  0  0  0  0  0  0  0  0  0
   23.8356   58.9085   35.3835 C   0  0  0  0  0  0  0  0  0  0  0  0
   24.4892   58.3643   34.9179 H   0  0  0  0  0  0  0  0  0  0  0  0
   24.3029   59.6779   35.7439 H   0  0  0  0  0  0  0  0  0  0  0  0
   23.2862   58.1108   36.5272 C   0  0  0  0  0  0  0  0  0  0  0  0
   20.4494   57.2094   38.1928 C   0  0  0  0  0  0  0  0  0  0  0  0
   20.0376   58.0127   37.9669 H   0  0  0  0  0  0  0  0  0  0  0  0
   21.5366   56.7676   37.4702 C   0  0  0  0  0  0  0  0  0  0  0  0
   22.1243   55.5683   37.8012 C   0  0  0  0  0  0  0  0  0  0  0  0
   19.9701   56.4630   39.2499 C   0  0  0  0  0  0  0  0  0  0  0  0
   19.2271   56.7572   39.7258 H   0  0  0  0  0  0  0  0  0  0  0  0
   20.3130   56.1564   41.9755 H   0  0  0  0  0  0  0  0  0  0  0  0
   22.0662   57.5459   36.3867 N   0  0  0  0  0  0  0  0  0  0  0  0
   23.9409   57.9693   37.5563 O   0  0  0  0  0  0  0  0  0  0  0  0
  1  2  1  0  0  0  0
  1  3  1  0  0  0  0
  1  4  1  0  0  0  0
  4  5  1  0  0  0  0
  4  6  1  0  0  0  0
  4  7  1  0  0  0  0
  7  8  1  0  0  0  0
  7  9  1  0  0  0  0
 11 12  1  0  0  0  0
 11 13  4  0  0  0  0
 13 14  4  0  0  0  0
 14 15  1  0  0  0  0
 14 16  4  0  0  0  0
 16 17  1  0  0  0  0
 11 18  4  0  0  0  0
  1 20  1  0  0  0  0
 10 20  4  0  0  0  0
 13 20  1  0  0  0  0
 16 21  4  0  0  0  0
 18 21  4  0  0  0  0
 18 22  1  0  0  0  0
 23 24  1  0  0  0  0
 23 25  1  0  0  0  0
 26 27  1  0  0  0  0
 27 28  4  0  0  0  0
 23 29  1  0  0  0  0
 28 29  1  0  0  0  0
 29 30  1  0  0  0  0
 29 31  1  0  0  0  0
 28 32  4  0  0  0  0
 32 33  1  0  0  0  0
 34 35  4  0  0  0  0
 35 36  1  0  0  0  0
 19 37  1  0  0  0  0
 35 37  4  0  0  0  0
 34 38  4  0  0  0  0
 38 39  1  0  0  0  0
 21 42  1  0  0  0  0
 23 42  1  0  0  0  0
 26 42  4  0  0  0  0
 27 43  4  0  0  0  0
 34 43  1  0  0  0  0
 32 44  4  0  0  0  0
 43 44  4  0  0  0  0
 33 45  4  0  0  0  0
 40 45  1  0  0  0  0
 41 45  1  0  0  0  0
 26 46  2  0  0  0  0
 33 47  2  0  0  0  0
 48 49  1  0  0  0  0
 48 50  1  0  0  0  0
 48 51  1  0  0  0  0
 48 52  1  0  0  0  0
 37 53  4  0  0  0  0
 52 53  1  0  0  0  0
 38 54  4  0  0  0  0
 53 54  4  0  0  0  0
 54 55  1  0  0  0  0
  7 56  1  0  0  0  0
 10 56  1  0  0  0  0
 56 57  1  0  0  0  0
 56 58  1  0  0  0  0
 10 59  2  0  0  0  0
 60 61  1  0  0  0  0
 60 62  1  0  0  0  0
 60 63  1  0  0  0  0
 63 64  1  0  0  0  0
 63 65  1  0  0  0  0
 63 66  1  0  0  0  0
 66 67  1  0  0  0  0
 66 68  1  0  0  0  0
 70 71  1  0  0  0  0
 70 72  4  0  0  0  0
 72 73  4  0  0  0  0
 73 74  1  0  0  0  0
 73 75  4  0  0  0  0
 75 76  1  0  0  0  0
 70 77  4  0  0  0  0
 60 79  1  0  0  0  0
 69 79  4  0  0  0  0
 72 79  1  0  0  0  0
 75 80  4  0  0  0  0
 77 80  4  0  0  0  0
 77 81  1  0  0  0  0
 82 83  1  0  0  0  0
 82 84  1  0  0  0  0
 85 86  1  0  0  0  0
 86 87  4  0  0  0  0
 82 88  1  0  0  0  0
 87 88  1  0  0  0  0
 88 89  1  0  0  0  0
 88 90  1  0  0  0  0
 87 91  4  0  0  0  0
 91 92  1  0  0  0  0
 93 94  4  0  0  0  0
 94 95  1  0  0  0  0
 78 96  1  0  0  0  0
 94 96  4  0  0  0  0
 93 97  4  0  0  0  0
 97 98  1  0  0  0  0
 80101  1  0  0  0  0
 82101  1  0  0  0  0
 85101  4  0  0  0  0
 86102  4  0  0  0  0
 93102  1  0  0  0  0
 91103  4  0  0  0  0
102103  4  0  0  0  0
 92104  4  0  0  0  0
 99104  1  0  0  0  0
100104  1  0  0  0  0
 85105  2  0  0  0  0
 92106  2  0  0  0  0
107108  1  0  0  0  0
107109  1  0  0  0  0
107110  1  0  0  0  0
107111  1  0  0  0  0
 96112  4  0  0  0  0
111112  1  0  0  0  0
 97113  4  0  0  0  0
112113  4  0  0  0  0
113114  1  0  0  0  0
 66115  1  0  0  0  0
 69115  1  0  0  0  0
115116  1  0  0  0  0
115117  1  0  0  0  0
 69118  2  0  0  0  0
119120  1  0  0  0  0
119121  1  0  0  0  0
123124  4  0  0  0  0
124125  1  0  0  0  0
126127  1  0  0  0  0
126128  1  0  0  0  0
126129  1  0  0  0  0
123130  1  0  0  0  0
126130  1  0  0  0  0
133134  1  0  0  0  0
133135  1  0  0  0  0
136137  1  0  0  0  0
137138  4  0  0  0  0
133139  1  0  0  0  0
138139  1  0  0  0  0
139140  1  0  0  0  0
139141  1  0  0  0  0
138142  4  0  0  0  0
142143  1  0  0  0  0
144145  4  0  0  0  0
145146  1  0  0  0  0
123147  4  0  0  0  0
145147  4  0  0  0  0
124148  4  0  0  0  0
144148  4  0  0  0  0
148149  1  0  0  0  0
131152  1  0  0  0  0
133152  1  0  0  0  0
136152  4  0  0  0  0
137153  4  0  0  0  0
144153  1  0  0  0  0
142154  4  0  0  0  0
153154  4  0  0  0  0
143155  4  0  0  0  0
150155  1  0  0  0  0
151155  1  0  0  0  0
136156  2  0  0  0  0
143157  2  0  0  0  0
158159  1  0  0  0  0
158160  1  0  0  0  0
158161  1  0  0  0  0
161162  1  0  0  0  0
161163  1  0  0  0  0
119164  1  0  0  0  0
161164  1  0  0  0  0
164165  1  0  0  0  0
164166  1  0  0  0  0
119167  1  0  0  0  0
122167  2  0  0  0  0
168169  1  0  0  0  0
168170  4  0  0  0  0
170171  4  0  0  0  0
171172  1  0  0  0  0
131173  4  0  0  0  0
171173  4  0  0  0  0
173174  1  0  0  0  0
131175  4  0  0  0  0
132175  1  0  0  0  0
168175  4  0  0  0  0
147176  1  0  0  0  0
158177  1  0  0  0  0
167177  4  0  0  0  0
170177  1  0  0  0  0
178179  1  0  0  0  0
178180  1  0  0  0  0
182183  4  0  0  0  0
183184  1  0  0  0  0
185186  1  0  0  0  0
185187  1  0  0  0  0
185188  1  0  0  0  0
182189  1  0  0  0  0
185189  1  0  0  0  0
192193  1  0  0  0  0
192194  1  0  0  0  0
195196  1  0  0  0  0
196197  4  0  0  0  0
192198  1  0  0  0  0
197198  1  0  0  0  0
198199  1  0  0  0  0
198200  1  0  0  0  0
197201  4  0  0  0  0
201202  1  0  0  0  0
203204  4  0  0  0  0
204205  1  0  0  0  0
182206  4  0  0  0  0
204206  4  0  0  0  0
183207  4  0  0  0  0
203207  4  0  0  0  0
207208  1  0  0  0  0
190211  1  0  0  0  0
192211  1  0  0  0  0
195211  4  0  0  0  0
196212  4  0  0  0  0
203212  1  0  0  0  0
201213  4  0  0  0  0
212213  4  0  0  0  0
202214  4  0  0  0  0
209214  1  0  0  0  0
210214  1  0  0  0  0
195215  2  0  0  0  0
202216  2  0  0  0  0
217218  1  0  0  0  0
217219  1  0  0  0  0
217220  1  0  0  0  0
220221  1  0  0  0  0
220222  1  0  0  0  0
178223  1  0  0  0  0
220223  1  0  0  0  0
223224  1  0  0  0  0
223225  1  0  0  0  0
178226  1  0  0  0  0
181226  2  0  0  0  0
227228  1  0  0  0  0
227229  4  0  0  0  0
229230  4  0  0  0  0
230231  1  0  0  0  0
190232  4  0  0  0  0
230232  4  0  0  0  0
232233  1  0  0  0  0
190234  4  0  0  0  0
191234  1  0  0  0  0
227234  4  0  0  0  0
206235  1  0  0  0  0
217236  1  0  0  0  0
226236  4  0  0  0  0
229236  1  0  0  0  0
237238  1  0  0  0  0
237239  1  0  0  0  0
237240  1  0  0  0  0
240241  1  0  0  0  0
240242  1  0  0  0  0
240243  1  0  0  0  0
243244  1  0  0  0  0
243245  1  0  0  0  0
243246  1  0  0  0  0
246247  1  0  0  0  0
246248  1  0  0  0  0
246249  1  0  0  0  0
250251  1  0  0  0  0
250252  4  0  0  0  0
252253  4  0  0  0  0
250254  4  0  0  0  0
254255  1  0  0  0  0
237257  1  0  0  0  0
249257  4  0  0  0  0
252257  1  0  0  0  0
249258  2  0  0  0  0
253259  1  0  0  0  0
253260  4  0  0  0  0
260261  1  0  0  0  0
254262  4  0  0  0  0
260262  4  0  0  0  0
256263  1  0  0  0  0
263264  1  0  0  0  0
265266  1  0  0  0  0
266267  4  0  0  0  0
263268  1  0  0  0  0
267268  1  0  0  0  0
268269  1  0  0  0  0
268270  1  0  0  0  0
267271  4  0  0  0  0
271272  1  0  0  0  0
273274  4  0  0  0  0
274275  1  0  0  0  0
274276  4  0  0  0  0
276277  1  0  0  0  0
276278  4  0  0  0  0
278279  4  0  0  0  0
279280  1  0  0  0  0
273281  4  0  0  0  0
279281  4  0  0  0  0
281282  1  0  0  0  0
283284  1  0  0  0  0
283285  1  0  0  0  0
283286  1  0  0  0  0
262289  1  0  0  0  0
263289  1  0  0  0  0
265289  4  0  0  0  0
266290  4  0  0  0  0
273290  1  0  0  0  0
271291  4  0  0  0  0
290291  4  0  0  0  0
272292  4  0  0  0  0
287292  1  0  0  0  0
288292  1  0  0  0  0
265293  2  0  0  0  0
272294  2  0  0  0  0
278295  1  0  0  0  0
283295  1  0  0  0  0
297298  1  0  0  0  0
297299  4  0  0  0  0
300301  1  0  0  0  0
302303  1  0  0  0  0
303304  4  0  0  0  0
300305  1  0  0  0  0
304305  1  0  0  0  0
305306  1  0  0  0  0
305307  1  0  0  0  0
304308  4  0  0  0  0
308309  1  0  0  0  0
310311  4  0  0  0  0
311312  1  0  0  0  0
311313  4  0  0  0  0
313314  1  0  0  0  0
313315  4  0  0  0  0
315316  4  0  0  0  0
316317  1  0  0  0  0
310318  4  0  0  0  0
316318  4  0  0  0  0
318319  1  0  0  0  0
320321  1  0  0  0  0
320322  1  0  0  0  0
320323  1  0  0  0  0
299326  1  0  0  0  0
300326  1  0  0  0  0
302326  4  0  0  0  0
303327  4  0  0  0  0
310327  1  0  0  0  0
308328  4  0  0  0  0
327328  4  0  0  0  0
309329  4  0  0  0  0
324329  1  0  0  0  0
325329  1  0  0  0  0
302330  2  0  0  0  0
309331  2  0  0  0  0
315332  1  0  0  0  0
320332  1  0  0  0  0
333334  1  0  0  0  0
333335  1  0  0  0  0
333336  1  0  0  0  0
336337  1  0  0  0  0
336338  1  0  0  0  0
336339  1  0  0  0  0
339340  1  0  0  0  0
339341  1  0  0  0  0
339342  1  0  0  0  0
342343  1  0  0  0  0
342344  1  0  0  0  0
342345  1  0  0  0  0
346347  1  0  0  0  0
346348  4  0  0  0  0
296349  1  0  0  0  0
297349  4  0  0  0  0
348349  4  0  0  0  0
299350  4  0  0  0  0
346350  4  0  0  0  0
350351  1  0  0  0  0
300352  1  0  0  0  0
333353  1  0  0  0  0
345353  4  0  0  0  0
348353  1  0  0  0  0
345354  2  0  0  0  0
356357  1  0  0  0  0
356358  4  0  0  0  0
359360  1  0  0  0  0
361362  1  0  0  0  0
362363  4  0  0  0  0
359364  1  0  0  0  0
363364  1  0  0  0  0
364365  1  0  0  0  0
364366  1  0  0  0  0
363367  4  0  0  0  0
367368  1  0  0  0  0
369370  4  0  0  0  0
370371  1  0  0  0  0
370372  4  0  0  0  0
372373  1  0  0  0  0
372374  4  0  0  0  0
374375  4  0  0  0  0
375376  1  0  0  0  0
369377  4  0  0  0  0
375377  4  0  0  0  0
377378  1  0  0  0  0
379380  1  0  0  0  0
379381  1  0  0  0  0
379382  1  0  0  0  0
358385  1  0  0  0  0
359385  1  0  0  0  0
361385  4  0  0  0  0
362386  4  0  0  0  0
369386  1  0  0  0  0
367387  4  0  0  0  0
386387  4  0  0  0  0
368388  4  0  0  0  0
383388  1  0  0  0  0
384388  1  0  0  0  0
361389  2  0  0  0  0
368390  2  0  0  0  0
374391  1  0  0  0  0
379391  1  0  0  0  0
392393  1  0  0  0  0
392394  1  0  0  0  0
392395  1  0  0  0  0
395396  1  0  0  0  0
395397  1  0  0  0  0
395398  1  0  0  0  0
398399  1  0  0  0  0
398400  1  0  0  0  0
398401  1  0  0  0  0
401402  1  0  0  0  0
401403  1  0  0  0  0
401404  1  0  0  0  0
405406  1  0  0  0  0
405407  4  0  0  0  0
355408  1  0  0  0  0
356408  4  0  0  0  0
407408  4  0  0  0  0
358409  4  0  0  0  0
405409  4  0  0  0  0
409410  1  0  0  0  0
359411  1  0  0  0  0
392412  1  0  0  0  0
404412  4  0  0  0  0
407412  1  0  0  0  0
404413  2  0  0  0  0
M  END
