 xtb: 6.7.1pre (5071a88)
          10032617043D

413441  0     0  0            999 V2000
   22.8395   41.4089   37.2983 H   0  0  0  0  0  0  0  0  0  0  0  0
   21.6619   40.9937   38.8688 C   0  0  0  0  0  0  0  0  0  0  0  0
   22.0762   40.1922   39.0949 H   0  0  0  0  0  0  0  0  0  0  0  0
   20.5902   41.4417   39.6021 C   0  0  0  0  0  0  0  0  0  0  0  0
   20.3789   41.3511   42.0716 C   0  0  0  0  0  0  0  0  0  0  0  0
   21.2758   41.1418   42.3751 H   0  0  0  0  0  0  0  0  0  0  0  0
   19.9167   39.3726   40.6488 C   0  0  0  0  0  0  0  0  0  0  0  0
   19.7049   38.7267   41.9539 C   0  0  0  0  0  0  0  0  0  0  0  0
   19.3750   39.3967   43.0974 C   0  0  0  0  0  0  0  0  0  0  0  0
   19.3799   40.8853   43.1136 C   0  0  0  0  0  0  0  0  0  0  0  0
   18.4952   41.2248   42.9053 H   0  0  0  0  0  0  0  0  0  0  0  0
   19.6355   41.2096   43.9908 H   0  0  0  0  0  0  0  0  0  0  0  0
   19.0923   38.3976   44.0297 C   0  0  0  0  0  0  0  0  0  0  0  0
   18.6213   38.5712   45.4218 C   0  0  0  0  0  0  0  0  0  0  0  0
   19.9215   36.2732   41.3858 C   0  0  0  0  0  0  0  0  0  0  0  0
   21.0205   36.3210   40.5582 C   0  0  0  0  0  0  0  0  0  0  0  0
   21.5748   37.0680   40.5643 H   0  0  0  0  0  0  0  0  0  0  0  0
   21.2997   35.2620   39.7212 C   0  0  0  0  0  0  0  0  0  0  0  0
   22.0401   35.2948   39.1610 H   0  0  0  0  0  0  0  0  0  0  0  0
   20.4833   34.1573   39.7162 C   0  0  0  0  0  0  0  0  0  0  0  0
   19.4039   34.0980   40.5802 C   0  0  0  0  0  0  0  0  0  0  0  0
   18.8697   33.3376   40.5989 H   0  0  0  0  0  0  0  0  0  0  0  0
   19.1166   35.1509   41.4086 C   0  0  0  0  0  0  0  0  0  0  0  0
   18.3850   35.1107   41.9818 H   0  0  0  0  0  0  0  0  0  0  0  0
   21.6548   33.1890   37.8999 C   0  0  0  0  0  0  0  0  0  0  0  0
   21.6374   32.4074   37.3423 H   0  0  0  0  0  0  0  0  0  0  0  0
   21.4973   33.9688   37.3628 H   0  0  0  0  0  0  0  0  0  0  0  0
   22.5143   33.2600   38.3224 H   0  0  0  0  0  0  0  0  0  0  0  0
   18.3954   37.5207   47.0161 H   0  0  0  0  0  0  0  0  0  0  0  0
   19.0344   36.8106   45.9117 H   0  0  0  0  0  0  0  0  0  0  0  0
   20.1504   40.7164   40.7605 N   0  0  0  0  0  0  0  0  0  0  0  0
   19.6154   37.3906   42.2211 N   0  0  0  0  0  0  0  0  0  0  0  0
   19.2544   37.1779   43.5039 N   0  0  0  0  0  0  0  0  0  0  0  0
   18.6614   37.4851   46.1880 N   0  0  0  0  0  0  0  0  0  0  0  0
   19.8035   38.8022   39.5831 O   0  0  0  0  0  0  0  0  0  0  0  0
   18.1983   39.6547   45.7866 O   0  0  0  0  0  0  0  0  0  0  0  0
   20.6475   33.0858   38.8908 O   0  0  0  0  0  0  0  0  0  0  0  0
   21.1688   43.9566   35.2529 C   0  0  0  0  0  0  0  0  0  0  0  0
   20.4746   44.5733   35.5362 H   0  0  0  0  0  0  0  0  0  0  0  0
   20.7379   43.1240   35.0045 H   0  0  0  0  0  0  0  0  0  0  0  0
   21.8364   44.5124   34.0693 C   0  0  0  0  0  0  0  0  0  0  0  0
   22.2759   43.7912   33.5901 H   0  0  0  0  0  0  0  0  0  0  0  0
   21.1664   44.8916   33.4800 H   0  0  0  0  0  0  0  0  0  0  0  0
   22.8329   45.5491   34.3892 C   0  0  0  0  0  0  0  0  0  0  0  0
   23.2905   45.8149   33.5760 H   0  0  0  0  0  0  0  0  0  0  0  0
   22.3793   46.3298   34.7449 H   0  0  0  0  0  0  0  0  0  0  0  0
   23.8356   45.0663   35.3835 C   0  0  0  0  0  0  0  0  0  0  0  0
   24.4892   44.5221   34.9179 H   0  0  0  0  0  0  0  0  0  0  0  0
   24.3029   45.8357   35.7439 H   0  0  0  0  0  0  0  0  0  0  0  0
   23.2862   44.2686   36.5272 C   0  0  0  0  0  0  0  0  0  0  0  0
   20.4494   43.3672   38.1928 C   0  0  0  0  0  0  0  0  0  0  0  0
   20.0376   44.1705   37.9669 H   0  0  0  0  0  0  0  0  0  0  0  0
   21.5366   42.9254   37.4702 C   0  0  0  0  0  0  0  0  0  0  0  0
   22.1243   41.7261   37.8012 C   0  0  0  0  0  0  0  0  0  0  0  0
   19.9701   42.6208   39.2499 C   0  0  0  0  0  0  0  0  0  0  0  0
   19.2271   42.9150   39.7258 H   0  0  0  0  0  0  0  0  0  0  0  0
   20.3130   42.3142   41.9755 H   0  0  0  0  0  0  0  0  0  0  0  0
   22.0662   43.7037   36.3867 N   0  0  0  0  0  0  0  0  0  0  0  0
   23.9409   44.1271   37.5563 O   0  0  0  0  0  0  0  0  0  0  0  0
   15.6924   39.0966   43.4089 C   0  0  0  0  0  0  0  0  0  0  0  0
   16.3866   38.4799   43.1255 H   0  0  0  0  0  0  0  0  0  0  0  0
   16.1233   39.9292   43.6573 H   0  0  0  0  0  0  0  0  0  0  0  0
   15.0248   38.5408   44.5924 C   0  0  0  0  0  0  0  0  0  0  0  0
   14.5853   39.2620   45.0716 H   0  0  0  0  0  0  0  0  0  0  0  0
   15.6948   38.1616   45.1817 H   0  0  0  0  0  0  0  0  0  0  0  0
   14.0283   37.5041   44.2726 C   0  0  0  0  0  0  0  0  0  0  0  0
   13.5707   37.2383   45.0858 H   0  0  0  0  0  0  0  0  0  0  0  0
   14.4819   36.7234   43.9169 H   0  0  0  0  0  0  0  0  0  0  0  0
   13.0256   37.9869   43.2783 C   0  0  0  0  0  0  0  0  0  0  0  0
   12.3720   38.5311   43.7438 H   0  0  0  0  0  0  0  0  0  0  0  0
   12.5583   37.2175   42.9178 H   0  0  0  0  0  0  0  0  0  0  0  0
   13.5751   38.7846   42.1345 C   0  0  0  0  0  0  0  0  0  0  0  0
   16.4118   39.6860   40.4690 C   0  0  0  0  0  0  0  0  0  0  0  0
   16.8237   38.8827   40.6949 H   0  0  0  0  0  0  0  0  0  0  0  0
   15.3246   40.1278   41.1915 C   0  0  0  0  0  0  0  0  0  0  0  0
   14.7369   41.3271   40.8605 C   0  0  0  0  0  0  0  0  0  0  0  0
   16.8911   40.4324   39.4119 C   0  0  0  0  0  0  0  0  0  0  0  0
   17.6342   40.1382   38.9360 H   0  0  0  0  0  0  0  0  0  0  0  0
   16.5482   40.7390   36.6863 H   0  0  0  0  0  0  0  0  0  0  0  0
   14.7950   39.3495   42.2750 N   0  0  0  0  0  0  0  0  0  0  0  0
   12.9203   38.9261   41.1055 O   0  0  0  0  0  0  0  0  0  0  0  0
   14.0217   41.6443   41.3635 H   0  0  0  0  0  0  0  0  0  0  0  0
   15.1993   42.0595   39.7929 C   0  0  0  0  0  0  0  0  0  0  0  0
   14.7850   42.8610   39.5669 H   0  0  0  0  0  0  0  0  0  0  0  0
   16.2710   41.6115   39.0596 C   0  0  0  0  0  0  0  0  0  0  0  0
   16.4823   41.7021   36.5901 C   0  0  0  0  0  0  0  0  0  0  0  0
   15.5854   41.9114   36.2867 H   0  0  0  0  0  0  0  0  0  0  0  0
   16.9445   43.6806   38.0130 C   0  0  0  0  0  0  0  0  0  0  0  0
   17.1563   44.3265   36.7078 C   0  0  0  0  0  0  0  0  0  0  0  0
   17.4862   43.6565   35.5644 C   0  0  0  0  0  0  0  0  0  0  0  0
   17.4813   42.1679   35.5482 C   0  0  0  0  0  0  0  0  0  0  0  0
   18.3660   41.8284   35.7565 H   0  0  0  0  0  0  0  0  0  0  0  0
   17.2257   41.8436   34.6710 H   0  0  0  0  0  0  0  0  0  0  0  0
   17.7689   44.6556   34.6321 C   0  0  0  0  0  0  0  0  0  0  0  0
   18.2399   44.4820   33.2399 C   0  0  0  0  0  0  0  0  0  0  0  0
   16.9397   46.7800   37.2759 C   0  0  0  0  0  0  0  0  0  0  0  0
   15.8407   46.7322   38.1036 C   0  0  0  0  0  0  0  0  0  0  0  0
   15.2864   45.9852   38.0975 H   0  0  0  0  0  0  0  0  0  0  0  0
   15.5615   47.7912   38.9406 C   0  0  0  0  0  0  0  0  0  0  0  0
   14.8211   47.7584   39.5008 H   0  0  0  0  0  0  0  0  0  0  0  0
   16.3779   48.8959   38.9456 C   0  0  0  0  0  0  0  0  0  0  0  0
   17.4573   48.9552   38.0816 C   0  0  0  0  0  0  0  0  0  0  0  0
   17.9916   49.7156   38.0628 H   0  0  0  0  0  0  0  0  0  0  0  0
   17.7446   47.9023   37.2531 C   0  0  0  0  0  0  0  0  0  0  0  0
   18.4762   47.9425   36.6800 H   0  0  0  0  0  0  0  0  0  0  0  0
   15.2064   49.8642   40.7619 C   0  0  0  0  0  0  0  0  0  0  0  0
   15.2238   50.6458   41.3194 H   0  0  0  0  0  0  0  0  0  0  0  0
   15.3639   49.0844   41.2990 H   0  0  0  0  0  0  0  0  0  0  0  0
   14.3469   49.7932   40.3393 H   0  0  0  0  0  0  0  0  0  0  0  0
   18.4658   45.5325   31.6456 H   0  0  0  0  0  0  0  0  0  0  0  0
   17.8268   46.2426   32.7500 H   0  0  0  0  0  0  0  0  0  0  0  0
   16.7108   42.3368   37.9013 N   0  0  0  0  0  0  0  0  0  0  0  0
   17.2458   45.6626   36.4407 N   0  0  0  0  0  0  0  0  0  0  0  0
   17.6068   45.8753   35.1579 N   0  0  0  0  0  0  0  0  0  0  0  0
   18.1998   45.5681   32.4738 N   0  0  0  0  0  0  0  0  0  0  0  0
   17.0577   44.2510   39.0787 O   0  0  0  0  0  0  0  0  0  0  0  0
   18.6629   43.3985   32.8751 O   0  0  0  0  0  0  0  0  0  0  0  0
   16.2137   49.9674   39.7709 O   0  0  0  0  0  0  0  0  0  0  0  0
   25.9132   39.0966   43.4089 C   0  0  0  0  0  0  0  0  0  0  0  0
   26.6074   38.4799   43.1255 H   0  0  0  0  0  0  0  0  0  0  0  0
   26.3441   39.9292   43.6573 H   0  0  0  0  0  0  0  0  0  0  0  0
   25.2456   38.5408   44.5924 C   0  0  0  0  0  0  0  0  0  0  0  0
   24.8061   39.2620   45.0716 H   0  0  0  0  0  0  0  0  0  0  0  0
   25.9156   38.1616   45.1817 H   0  0  0  0  0  0  0  0  0  0  0  0
   24.2491   37.5041   44.2726 C   0  0  0  0  0  0  0  0  0  0  0  0
   23.7915   37.2383   45.0858 H   0  0  0  0  0  0  0  0  0  0  0  0
   24.7027   36.7234   43.9169 H   0  0  0  0  0  0  0  0  0  0  0  0
   23.2464   37.9869   43.2783 C   0  0  0  0  0  0  0  0  0  0  0  0
   22.5928   38.5311   43.7438 H   0  0  0  0  0  0  0  0  0  0  0  0
   22.7791   37.2175   42.9178 H   0  0  0  0  0  0  0  0  0  0  0  0
   23.7959   38.7846   42.1345 C   0  0  0  0  0  0  0  0  0  0  0  0
   26.6326   39.6860   40.4690 C   0  0  0  0  0  0  0  0  0  0  0  0
   27.0445   38.8827   40.6949 H   0  0  0  0  0  0  0  0  0  0  0  0
   25.5454   40.1278   41.1915 C   0  0  0  0  0  0  0  0  0  0  0  0
   24.9577   41.3271   40.8605 C   0  0  0  0  0  0  0  0  0  0  0  0
   27.1119   40.4324   39.4119 C   0  0  0  0  0  0  0  0  0  0  0  0
   27.8550   40.1382   38.9360 H   0  0  0  0  0  0  0  0  0  0  0  0
   26.7690   40.7390   36.6863 H   0  0  0  0  0  0  0  0  0  0  0  0
   25.0158   39.3495   42.2750 N   0  0  0  0  0  0  0  0  0  0  0  0
   23.1411   38.9261   41.1055 O   0  0  0  0  0  0  0  0  0  0  0  0
   24.2425   41.6443   41.3635 H   0  0  0  0  0  0  0  0  0  0  0  0
   25.4201   42.0595   39.7929 C   0  0  0  0  0  0  0  0  0  0  0  0
   25.0058   42.8610   39.5669 H   0  0  0  0  0  0  0  0  0  0  0  0
   26.4918   41.6115   39.0596 C   0  0  0  0  0  0  0  0  0  0  0  0
   26.7031   41.7021   36.5901 C   0  0  0  0  0  0  0  0  0  0  0  0
   25.8062   41.9114   36.2867 H   0  0  0  0  0  0  0  0  0  0  0  0
   27.1653   43.6806   38.0130 C   0  0  0  0  0  0  0  0  0  0  0  0
   27.3771   44.3265   36.7078 C   0  0  0  0  0  0  0  0  0  0  0  0
   27.7070   43.6565   35.5644 C   0  0  0  0  0  0  0  0  0  0  0  0
   27.7021   42.1679   35.5482 C   0  0  0  0  0  0  0  0  0  0  0  0
   28.5868   41.8284   35.7565 H   0  0  0  0  0  0  0  0  0  0  0  0
   27.4465   41.8436   34.6710 H   0  0  0  0  0  0  0  0  0  0  0  0
   27.9897   44.6556   34.6321 C   0  0  0  0  0  0  0  0  0  0  0  0
   28.4607   44.4820   33.2399 C   0  0  0  0  0  0  0  0  0  0  0  0
   27.1605   46.7800   37.2759 C   0  0  0  0  0  0  0  0  0  0  0  0
   26.0615   46.7322   38.1036 C   0  0  0  0  0  0  0  0  0  0  0  0
   25.5072   45.9852   38.0975 H   0  0  0  0  0  0  0  0  0  0  0  0
   25.7823   47.7912   38.9406 C   0  0  0  0  0  0  0  0  0  0  0  0
   25.0419   47.7584   39.5008 H   0  0  0  0  0  0  0  0  0  0  0  0
   26.5987   48.8959   38.9456 C   0  0  0  0  0  0  0  0  0  0  0  0
   27.6781   48.9552   38.0816 C   0  0  0  0  0  0  0  0  0  0  0  0
   28.2124   49.7156   38.0628 H   0  0  0  0  0  0  0  0  0  0  0  0
   27.9654   47.9023   37.2531 C   0  0  0  0  0  0  0  0  0  0  0  0
   28.6970   47.9425   36.6800 H   0  0  0  0  0  0  0  0  0  0  0  0
   25.4272   49.8642   40.7619 C   0  0  0  0  0  0  0  0  0  0  0  0
   25.4446   50.6458   41.3194 H   0  0  0  0  0  0  0  0  0  0  0  0
   25.5847   49.0844   41.2990 H   0  0  0  0  0  0  0  0  0  0  0  0
   24.5677   49.7932   40.3393 H   0  0  0  0  0  0  0  0  0  0  0  0
   28.6866   45.5325   31.6456 H   0  0  0  0  0  0  0  0  0  0  0  0
   28.0476   46.2426   32.7500 H   0  0  0  0  0  0  0  0  0  0  0  0
   26.9316   42.3368   37.9013 N   0  0  0  0  0  0  0  0  0  0  0  0
   27.4666   45.6626   36.4407 N   0  0  0  0  0  0  0  0  0  0  0  0
   27.8276   45.8753   35.1579 N   0  0  0  0  0  0  0  0  0  0  0  0
   28.4206   45.5681   32.4738 N   0  0  0  0  0  0  0  0  0  0  0  0
   27.2785   44.2510   39.0787 O   0  0  0  0  0  0  0  0  0  0  0  0
   28.8837   43.3985   32.8751 O   0  0  0  0  0  0  0  0  0  0  0  0
   26.4345   49.9674   39.7709 O   0  0  0  0  0  0  0  0  0  0  0  0
   17.7338   38.1452   51.1445 C   0  0  0  0  0  0  0  0  0  0  0  0
   17.0802   37.6010   51.6100 H   0  0  0  0  0  0  0  0  0  0  0  0
   17.2665   38.9146   50.7840 H   0  0  0  0  0  0  0  0  0  0  0  0
   17.6285   37.2060   48.9717 O   0  0  0  0  0  0  0  0  0  0  0  0
   21.0861   27.2362   46.8118 C   0  0  0  0  0  0  0  0  0  0  0  0
   22.1655   27.1769   45.9477 C   0  0  0  0  0  0  0  0  0  0  0  0
   22.6998   26.4165   45.9290 H   0  0  0  0  0  0  0  0  0  0  0  0
   19.9146   26.2679   48.6281 C   0  0  0  0  0  0  0  0  0  0  0  0
   19.9320   25.4863   49.1856 H   0  0  0  0  0  0  0  0  0  0  0  0
   20.0721   27.0477   49.1652 H   0  0  0  0  0  0  0  0  0  0  0  0
   19.0551   26.3389   48.2055 H   0  0  0  0  0  0  0  0  0  0  0  0
   20.9219   26.1647   47.6371 O   0  0  0  0  0  0  0  0  0  0  0  0
   20.9792   34.5206   46.9258 C   0  0  0  0  0  0  0  0  0  0  0  0
   22.3424   35.9939   46.8022 H   0  0  0  0  0  0  0  0  0  0  0  0
   21.1905   34.4300   44.4563 C   0  0  0  0  0  0  0  0  0  0  0  0
   20.2936   34.2207   44.1528 H   0  0  0  0  0  0  0  0  0  0  0  0
   21.2564   35.3931   44.5524 H   0  0  0  0  0  0  0  0  0  0  0  0
   21.6527   32.4515   45.8791 C   0  0  0  0  0  0  0  0  0  0  0  0
   21.8645   31.8056   44.5740 C   0  0  0  0  0  0  0  0  0  0  0  0
   22.1944   32.4756   43.4306 C   0  0  0  0  0  0  0  0  0  0  0  0
   22.1895   33.9642   43.4144 C   0  0  0  0  0  0  0  0  0  0  0  0
   23.0742   34.3037   43.6227 H   0  0  0  0  0  0  0  0  0  0  0  0
   21.9339   34.2885   42.5371 H   0  0  0  0  0  0  0  0  0  0  0  0
   22.4771   31.4765   42.4983 C   0  0  0  0  0  0  0  0  0  0  0  0
   22.9481   31.6501   41.1061 C   0  0  0  0  0  0  0  0  0  0  0  0
   21.6479   29.3521   45.1421 C   0  0  0  0  0  0  0  0  0  0  0  0
   20.5489   29.3999   45.9698 C   0  0  0  0  0  0  0  0  0  0  0  0
   19.9946   30.1469   45.9636 H   0  0  0  0  0  0  0  0  0  0  0  0
   20.2697   28.3409   46.8067 C   0  0  0  0  0  0  0  0  0  0  0  0
   22.4528   28.2298   45.1193 C   0  0  0  0  0  0  0  0  0  0  0  0
   23.1844   28.1896   44.5461 H   0  0  0  0  0  0  0  0  0  0  0  0
   23.1740   30.5996   39.5118 H   0  0  0  0  0  0  0  0  0  0  0  0
   22.5350   29.8895   40.6162 H   0  0  0  0  0  0  0  0  0  0  0  0
   21.4190   33.7953   45.7674 N   0  0  0  0  0  0  0  0  0  0  0  0
   21.9540   30.4695   44.3069 N   0  0  0  0  0  0  0  0  0  0  0  0
   22.3150   30.2568   43.0240 N   0  0  0  0  0  0  0  0  0  0  0  0
   22.9080   30.5640   40.3399 N   0  0  0  0  0  0  0  0  0  0  0  0
   21.7659   31.8811   46.9449 O   0  0  0  0  0  0  0  0  0  0  0  0
   23.3711   32.7336   40.7413 O   0  0  0  0  0  0  0  0  0  0  0  0
   20.4006   37.0355   51.2750 C   0  0  0  0  0  0  0  0  0  0  0  0
   21.0948   37.6522   50.9917 H   0  0  0  0  0  0  0  0  0  0  0  0
   20.8315   36.2029   51.5234 H   0  0  0  0  0  0  0  0  0  0  0  0
   19.7330   37.5913   52.4586 C   0  0  0  0  0  0  0  0  0  0  0  0
   19.2935   36.8701   52.9378 H   0  0  0  0  0  0  0  0  0  0  0  0
   20.4030   37.9705   53.0479 H   0  0  0  0  0  0  0  0  0  0  0  0
   18.7365   38.6280   52.1387 C   0  0  0  0  0  0  0  0  0  0  0  0
   18.2789   38.8938   52.9519 H   0  0  0  0  0  0  0  0  0  0  0  0
   19.1901   39.4087   51.7830 H   0  0  0  0  0  0  0  0  0  0  0  0
   18.2833   37.3475   50.0007 C   0  0  0  0  0  0  0  0  0  0  0  0
   21.1200   36.4461   48.3351 C   0  0  0  0  0  0  0  0  0  0  0  0
   21.5319   37.2494   48.5610 H   0  0  0  0  0  0  0  0  0  0  0  0
   20.0328   36.0043   49.0577 C   0  0  0  0  0  0  0  0  0  0  0  0
   19.4451   34.8050   48.7267 C   0  0  0  0  0  0  0  0  0  0  0  0
   18.7299   34.4878   49.2297 H   0  0  0  0  0  0  0  0  0  0  0  0
   19.9075   34.0726   47.6591 C   0  0  0  0  0  0  0  0  0  0  0  0
   19.4932   33.2711   47.4330 H   0  0  0  0  0  0  0  0  0  0  0  0
   21.5993   35.6997   47.2781 C   0  0  0  0  0  0  0  0  0  0  0  0
   19.5293   28.3737   47.3670 H   0  0  0  0  0  0  0  0  0  0  0  0
   19.5032   36.7826   50.1412 N   0  0  0  0  0  0  0  0  0  0  0  0
   17.7338   51.9874   51.1445 C   0  0  0  0  0  0  0  0  0  0  0  0
   17.0802   51.4432   51.6100 H   0  0  0  0  0  0  0  0  0  0  0  0
   17.2665   52.7568   50.7840 H   0  0  0  0  0  0  0  0  0  0  0  0
   17.6285   51.0482   48.9717 O   0  0  0  0  0  0  0  0  0  0  0  0
   21.0861   41.0784   46.8118 C   0  0  0  0  0  0  0  0  0  0  0  0
   22.1655   41.0191   45.9477 C   0  0  0  0  0  0  0  0  0  0  0  0
   22.6998   40.2587   45.9290 H   0  0  0  0  0  0  0  0  0  0  0  0
   19.9146   40.1101   48.6281 C   0  0  0  0  0  0  0  0  0  0  0  0
   19.9320   39.3285   49.1856 H   0  0  0  0  0  0  0  0  0  0  0  0
   20.0721   40.8899   49.1652 H   0  0  0  0  0  0  0  0  0  0  0  0
   19.0551   40.1811   48.2055 H   0  0  0  0  0  0  0  0  0  0  0  0
   20.9219   40.0069   47.6371 O   0  0  0  0  0  0  0  0  0  0  0  0
   20.9792   48.3628   46.9258 C   0  0  0  0  0  0  0  0  0  0  0  0
   22.3424   49.8361   46.8022 H   0  0  0  0  0  0  0  0  0  0  0  0
   21.1905   48.2722   44.4563 C   0  0  0  0  0  0  0  0  0  0  0  0
   20.2936   48.0629   44.1528 H   0  0  0  0  0  0  0  0  0  0  0  0
   21.2564   49.2353   44.5524 H   0  0  0  0  0  0  0  0  0  0  0  0
   21.6527   46.2937   45.8791 C   0  0  0  0  0  0  0  0  0  0  0  0
   21.8645   45.6478   44.5740 C   0  0  0  0  0  0  0  0  0  0  0  0
   22.1944   46.3178   43.4306 C   0  0  0  0  0  0  0  0  0  0  0  0
   22.1895   47.8064   43.4144 C   0  0  0  0  0  0  0  0  0  0  0  0
   23.0742   48.1459   43.6227 H   0  0  0  0  0  0  0  0  0  0  0  0
   21.9339   48.1307   42.5371 H   0  0  0  0  0  0  0  0  0  0  0  0
   22.4771   45.3187   42.4983 C   0  0  0  0  0  0  0  0  0  0  0  0
   22.9481   45.4923   41.1061 C   0  0  0  0  0  0  0  0  0  0  0  0
   21.6479   43.1943   45.1421 C   0  0  0  0  0  0  0  0  0  0  0  0
   20.5489   43.2421   45.9698 C   0  0  0  0  0  0  0  0  0  0  0  0
   19.9946   43.9891   45.9636 H   0  0  0  0  0  0  0  0  0  0  0  0
   20.2697   42.1831   46.8067 C   0  0  0  0  0  0  0  0  0  0  0  0
   22.4528   42.0720   45.1193 C   0  0  0  0  0  0  0  0  0  0  0  0
   23.1844   42.0318   44.5461 H   0  0  0  0  0  0  0  0  0  0  0  0
   23.1740   44.4418   39.5118 H   0  0  0  0  0  0  0  0  0  0  0  0
   22.5350   43.7317   40.6162 H   0  0  0  0  0  0  0  0  0  0  0  0
   21.4190   47.6375   45.7674 N   0  0  0  0  0  0  0  0  0  0  0  0
   21.9540   44.3117   44.3069 N   0  0  0  0  0  0  0  0  0  0  0  0
   22.3150   44.0990   43.0240 N   0  0  0  0  0  0  0  0  0  0  0  0
   22.9080   44.4062   40.3399 N   0  0  0  0  0  0  0  0  0  0  0  0
   21.7659   45.7233   46.9449 O   0  0  0  0  0  0  0  0  0  0  0  0
   23.3711   46.5758   40.7413 O   0  0  0  0  0  0  0  0  0  0  0  0
   20.4006   50.8777   51.2750 C   0  0  0  0  0  0  0  0  0  0  0  0
   21.0948   51.4944   50.9917 H   0  0  0  0  0  0  0  0  0  0  0  0
   20.8315   50.0451   51.5234 H   0  0  0  0  0  0  0  0  0  0  0  0
   19.7330   51.4335   52.4586 C   0  0  0  0  0  0  0  0  0  0  0  0
   19.2935   50.7123   52.9378 H   0  0  0  0  0  0  0  0  0  0  0  0
   20.4030   51.8127   53.0479 H   0  0  0  0  0  0  0  0  0  0  0  0
   18.7365   52.4702   52.1387 C   0  0  0  0  0  0  0  0  0  0  0  0
   18.2789   52.7360   52.9519 H   0  0  0  0  0  0  0  0  0  0  0  0
   19.1901   53.2509   51.7830 H   0  0  0  0  0  0  0  0  0  0  0  0
   18.2833   51.1897   50.0007 C   0  0  0  0  0  0  0  0  0  0  0  0
   21.1200   50.2883   48.3351 C   0  0  0  0  0  0  0  0  0  0  0  0
   21.5319   51.0916   48.5610 H   0  0  0  0  0  0  0  0  0  0  0  0
   20.0328   49.8465   49.0577 C   0  0  0  0  0  0  0  0  0  0  0  0
   19.4451   48.6472   48.7267 C   0  0  0  0  0  0  0  0  0  0  0  0
   18.7299   48.3300   49.2297 H   0  0  0  0  0  0  0  0  0  0  0  0
   19.9075   47.9148   47.6591 C   0  0  0  0  0  0  0  0  0  0  0  0
   19.4932   47.1133   47.4330 H   0  0  0  0  0  0  0  0  0  0  0  0
   21.5993   49.5419   47.2781 C   0  0  0  0  0  0  0  0  0  0  0  0
   19.5293   42.2159   47.3670 H   0  0  0  0  0  0  0  0  0  0  0  0
   19.5032   50.6248   50.1412 N   0  0  0  0  0  0  0  0  0  0  0  0
   22.8395   27.5667   37.2983 H   0  0  0  0  0  0  0  0  0  0  0  0
   21.6619   27.1515   38.8688 C   0  0  0  0  0  0  0  0  0  0  0  0
   22.0762   26.3500   39.0949 H   0  0  0  0  0  0  0  0  0  0  0  0
   20.5902   27.5995   39.6021 C   0  0  0  0  0  0  0  0  0  0  0  0
   20.3789   27.5089   42.0716 C   0  0  0  0  0  0  0  0  0  0  0  0
   21.2758   27.2996   42.3751 H   0  0  0  0  0  0  0  0  0  0  0  0
   19.9167   25.5304   40.6488 C   0  0  0  0  0  0  0  0  0  0  0  0
   19.7049   24.8845   41.9539 C   0  0  0  0  0  0  0  0  0  0  0  0
   19.3750   25.5545   43.0974 C   0  0  0  0  0  0  0  0  0  0  0  0
   19.3799   27.0431   43.1136 C   0  0  0  0  0  0  0  0  0  0  0  0
   18.4952   27.3826   42.9053 H   0  0  0  0  0  0  0  0  0  0  0  0
   19.6355   27.3674   43.9908 H   0  0  0  0  0  0  0  0  0  0  0  0
   19.0923   24.5554   44.0297 C   0  0  0  0  0  0  0  0  0  0  0  0
   18.6213   24.7290   45.4218 C   0  0  0  0  0  0  0  0  0  0  0  0
   19.9215   22.4310   41.3858 C   0  0  0  0  0  0  0  0  0  0  0  0
   21.0205   22.4788   40.5582 C   0  0  0  0  0  0  0  0  0  0  0  0
   21.5748   23.2258   40.5643 H   0  0  0  0  0  0  0  0  0  0  0  0
   21.2997   21.4198   39.7212 C   0  0  0  0  0  0  0  0  0  0  0  0
   22.0401   21.4526   39.1610 H   0  0  0  0  0  0  0  0  0  0  0  0
   20.4833   20.3151   39.7162 C   0  0  0  0  0  0  0  0  0  0  0  0
   19.4039   20.2558   40.5802 C   0  0  0  0  0  0  0  0  0  0  0  0
   18.8697   19.4954   40.5989 H   0  0  0  0  0  0  0  0  0  0  0  0
   19.1166   21.3087   41.4086 C   0  0  0  0  0  0  0  0  0  0  0  0
   18.3850   21.2685   41.9818 H   0  0  0  0  0  0  0  0  0  0  0  0
   21.6548   19.3468   37.8999 C   0  0  0  0  0  0  0  0  0  0  0  0
   21.6374   18.5652   37.3423 H   0  0  0  0  0  0  0  0  0  0  0  0
   21.4973   20.1266   37.3628 H   0  0  0  0  0  0  0  0  0  0  0  0
   22.5143   19.4178   38.3224 H   0  0  0  0  0  0  0  0  0  0  0  0
   18.3954   23.6785   47.0161 H   0  0  0  0  0  0  0  0  0  0  0  0
   19.0344   22.9684   45.9117 H   0  0  0  0  0  0  0  0  0  0  0  0
   20.1504   26.8742   40.7605 N   0  0  0  0  0  0  0  0  0  0  0  0
   19.6154   23.5484   42.2211 N   0  0  0  0  0  0  0  0  0  0  0  0
   19.2544   23.3357   43.5039 N   0  0  0  0  0  0  0  0  0  0  0  0
   18.6614   23.6429   46.1880 N   0  0  0  0  0  0  0  0  0  0  0  0
   19.8035   24.9600   39.5831 O   0  0  0  0  0  0  0  0  0  0  0  0
   18.1983   25.8125   45.7866 O   0  0  0  0  0  0  0  0  0  0  0  0
   20.6475   19.2436   38.8908 O   0  0  0  0  0  0  0  0  0  0  0  0
   21.1688   30.1144   35.2529 C   0  0  0  0  0  0  0  0  0  0  0  0
   20.4746   30.7311   35.5362 H   0  0  0  0  0  0  0  0  0  0  0  0
   20.7379   29.2818   35.0045 H   0  0  0  0  0  0  0  0  0  0  0  0
   21.8364   30.6702   34.0693 C   0  0  0  0  0  0  0  0  0  0  0  0
   22.2759   29.9490   33.5901 H   0  0  0  0  0  0  0  0  0  0  0  0
   21.1664   31.0494   33.4800 H   0  0  0  0  0  0  0  0  0  0  0  0
   22.8329   31.7069   34.3892 C   0  0  0  0  0  0  0  0  0  0  0  0
   23.2905   31.9727   33.5760 H   0  0  0  0  0  0  0  0  0  0  0  0
   22.3793   32.4876   34.7449 H   0  0  0  0  0  0  0  0  0  0  0  0
   23.8356   31.2241   35.3835 C   0  0  0  0  0  0  0  0  0  0  0  0
   24.4892   30.6799   34.9179 H   0  0  0  0  0  0  0  0  0  0  0  0
   24.3029   31.9935   35.7439 H   0  0  0  0  0  0  0  0  0  0  0  0
   23.2862   30.4264   36.5272 C   0  0  0  0  0  0  0  0  0  0  0  0
   20.4494   29.5250   38.1928 C   0  0  0  0  0  0  0  0  0  0  0  0
   20.0376   30.3283   37.9669 H   0  0  0  0  0  0  0  0  0  0  0  0
   21.5366   29.0832   37.4702 C   0  0  0  0  0  0  0  0  0  0  0  0
   22.1243   27.8839   37.8012 C   0  0  0  0  0  0  0  0  0  0  0  0
   19.9701   28.7786   39.2499 C   0  0  0  0  0  0  0  0  0  0  0  0
   19.2271   29.0728   39.7258 H   0  0  0  0  0  0  0  0  0  0  0  0
   20.3130   28.4720   41.9755 H   0  0  0  0  0  0  0  0  0  0  0  0
   22.0662   29.8615   36.3867 N   0  0  0  0  0  0  0  0  0  0  0  0
   23.9409   30.2849   37.5563 O   0  0  0  0  0  0  0  0  0  0  0  0
   22.8395   55.2511   37.2983 H   0  0  0  0  0  0  0  0  0  0  0  0
   21.6619   54.8359   38.8688 C   0  0  0  0  0  0  0  0  0  0  0  0
   22.0762   54.0344   39.0949 H   0  0  0  0  0  0  0  0  0  0  0  0
   20.5902   55.2839   39.6021 C   0  0  0  0  0  0  0  0  0  0  0  0
   20.3789   55.1933   42.0716 C   0  0  0  0  0  0  0  0  0  0  0  0
   21.2758   54.9840   42.3751 H   0  0  0  0  0  0  0  0  0  0  0  0
   19.9167   53.2148   40.6488 C   0  0  0  0  0  0  0  0  0  0  0  0
   19.7049   52.5689   41.9539 C   0  0  0  0  0  0  0  0  0  0  0  0
   19.3750   53.2389   43.0974 C   0  0  0  0  0  0  0  0  0  0  0  0
   19.3799   54.7275   43.1136 C   0  0  0  0  0  0  0  0  0  0  0  0
   18.4952   55.0670   42.9053 H   0  0  0  0  0  0  0  0  0  0  0  0
   19.6355   55.0518   43.9908 H   0  0  0  0  0  0  0  0  0  0  0  0
   19.0923   52.2398   44.0297 C   0  0  0  0  0  0  0  0  0  0  0  0
   18.6213   52.4134   45.4218 C   0  0  0  0  0  0  0  0  0  0  0  0
   19.9215   50.1154   41.3858 C   0  0  0  0  0  0  0  0  0  0  0  0
   21.0205   50.1632   40.5582 C   0  0  0  0  0  0  0  0  0  0  0  0
   21.5748   50.9102   40.5643 H   0  0  0  0  0  0  0  0  0  0  0  0
   21.2997   49.1042   39.7212 C   0  0  0  0  0  0  0  0  0  0  0  0
   22.0401   49.1370   39.1610 H   0  0  0  0  0  0  0  0  0  0  0  0
   20.4833   47.9995   39.7162 C   0  0  0  0  0  0  0  0  0  0  0  0
   19.4039   47.9402   40.5802 C   0  0  0  0  0  0  0  0  0  0  0  0
   18.8697   47.1798   40.5989 H   0  0  0  0  0  0  0  0  0  0  0  0
   19.1166   48.9931   41.4086 C   0  0  0  0  0  0  0  0  0  0  0  0
   18.3850   48.9529   41.9818 H   0  0  0  0  0  0  0  0  0  0  0  0
   21.6548   47.0312   37.8999 C   0  0  0  0  0  0  0  0  0  0  0  0
   21.6374   46.2496   37.3423 H   0  0  0  0  0  0  0  0  0  0  0  0
   21.4973   47.8110   37.3628 H   0  0  0  0  0  0  0  0  0  0  0  0
   22.5143   47.1022   38.3224 H   0  0  0  0  0  0  0  0  0  0  0  0
   18.3954   51.3629   47.0161 H   0  0  0  0  0  0  0  0  0  0  0  0
   19.0344   50.6528   45.9117 H   0  0  0  0  0  0  0  0  0  0  0  0
   20.1504   54.5586   40.7605 N   0  0  0  0  0  0  0  0  0  0  0  0
   19.6154   51.2328   42.2211 N   0  0  0  0  0  0  0  0  0  0  0  0
   19.2544   51.0201   43.5039 N   0  0  0  0  0  0  0  0  0  0  0  0
   18.6614   51.3273   46.1880 N   0  0  0  0  0  0  0  0  0  0  0  0
   19.8035   52.6444   39.5831 O   0  0  0  0  0  0  0  0  0  0  0  0
   18.1983   53.4969   45.7866 O   0  0  0  0  0  0  0  0  0  0  0  0
   20.6475   46.9280   38.8908 O   0  0  0  0  0  0  0  0  0  0  0  0
   21.1688   57.7988   35.2529 C   0  0  0  0  0  0  0  0  0  0  0  0
   20.4746   58.4155   35.5362 H   0  0  0  0  0  0  0  0  0  0  0  0
   20.7379   56.9662   35.0045 H   0  0  0  0  0  0  0  0  0  0  0  0
   21.8364   58.3546   34.0693 C   0  0  0  0  0  0  0  0  0  0  0  0
   22.2759   57.6334   33.5901 H   0  0  0  0  0  0  0  0  0  0  0  0
   21.1664   58.7338   33.4800 H   0  0  0  0  0  0  0  0  0  0  0  0
   22.8329   59.3913   34.3892 C   0  0  0  0  0  0  0  0  0  0  0  0
   23.2905   59.6571   33.5760 H   0  0  0  0  0  0  0  0  0  0  0  0
   22.3793   60.1720   34.7449 H   0  0  0  0  0  0  0  0  0  0  0  0
   23.8356   58.9085   35.3835 C   0  0  0  0  0  0  0  0  0  0  0  0
   24.4892   58.3643   34.9179 H   0  0  0  0  0  0  0  0  0  0  0  0
   24.3029   59.6779   35.7439 H   0  0  0  0  0  0  0  0  0  0  0  0
   23.2862   58.1108   36.5272 C   0  0  0  0  0  0  0  0  0  0  0  0
   20.4494   57.2094   38.1928 C   0  0  0  0  0  0  0  0  0  0  0  0
   20.0376   58.0127   37.9669 H   0  0  0  0  0  0  0  0  0  0  0  0
   21.5366   56.7676   37.4702 C   0  0  0  0  0  0  0  0  0  0  0  0
   22.1243   55.5683   37.8012 C   0  0  0  0  0  0  0  0  0  0  0  0
   19.9701   56.4630   39.2499 C   0  0  0  0  0  0  0  0  0  0  0  0
   19.2271   56.7572   39.7258 H   0  0  0  0  0  0  0  0  0  0  0  0
   20.3130   56.1564   41.9755 H   0  0  0  0  0  0  0  0  0  0  0  0
   22.0662   57.5459   36.3867 N   0  0  0  0  0  0  0  0  0  0  0  0
   23.9409   57.9693   37.5563 O   0  0  0  0  0  0  0  0  0  0  0  0
  2  3  1  0  0  0  0
  2  4  4  0  0  0  0
  5  6  1  0  0  0  0
  7  8  1  0  0  0  0
  8  9  4  0  0  0  0
  5 10  1  0  0  0  0
  9 10  1  0  0  0  0
 10 11  1  0  0  0  0
 10 12  1  0  0  0  0
  9 13  4  0  0  0  0
 13 14  1  0  0  0  0
 15 16  4  0  0  0  0
 16 17  1  0  0  0  0
 16 18  4  0  0  0  0
 18 19  1  0  0  0  0
 18 20  4  0  0  0  0
 20 21  4  0  0  0  0
 21 22  1  0  0  0  0
 15 23  4  0  0  0  0
 21 23  4  0  0  0  0
 23 24  1  0  0  0  0
 25 26  1  0  0  0  0
 25 27  1  0  0  0  0
 25 28  1  0  0  0  0
  4 31  1  0  0  0  0
  5 31  1  0  0  0  0
  7 31  4  0  0  0  0
  8 32  4  0  0  0  0
 15 32  1  0  0  0  0
 13 33  4  0  0  0  0
 32 33  4  0  0  0  0
 14 34  4  0  0  0  0
 29 34  1  0  0  0  0
 30 34  1  0  0  0  0
  7 35  2  0  0  0  0
 14 36  2  0  0  0  0
 20 37  1  0  0  0  0
 25 37  1  0  0  0  0
 38 39  1  0  0  0  0
 38 40  1  0  0  0  0
 38 41  1  0  0  0  0
 41 42  1  0  0  0  0
 41 43  1  0  0  0  0
 41 44  1  0  0  0  0
 44 45  1  0  0  0  0
 44 46  1  0  0  0  0
 44 47  1  0  0  0  0
 47 48  1  0  0  0  0
 47 49  1  0  0  0  0
 47 50  1  0  0  0  0
 51 52  1  0  0  0  0
 51 53  4  0  0  0  0
  1 54  1  0  0  0  0
  2 54  4  0  0  0  0
 53 54  4  0  0  0  0
  4 55  4  0  0  0  0
 51 55  4  0  0  0  0
 55 56  1  0  0  0  0
  5 57  1  0  0  0  0
 38 58  1  0  0  0  0
 50 58  4  0  0  0  0
 53 58  1  0  0  0  0
 50 59  2  0  0  0  0
 60 61  1  0  0  0  0
 60 62  1  0  0  0  0
 60 63  1  0  0  0  0
 63 64  1  0  0  0  0
 63 65  1  0  0  0  0
 63 66  1  0  0  0  0
 66 67  1  0  0  0  0
 66 68  1  0  0  0  0
 66 69  1  0  0  0  0
 69 70  1  0  0  0  0
 69 71  1  0  0  0  0
 69 72  1  0  0  0  0
 73 74  1  0  0  0  0
 73 75  4  0  0  0  0
 75 76  4  0  0  0  0
 73 77  4  0  0  0  0
 77 78  1  0  0  0  0
 60 80  1  0  0  0  0
 72 80  4  0  0  0  0
 75 80  1  0  0  0  0
 72 81  2  0  0  0  0
 76 82  1  0  0  0  0
 76 83  4  0  0  0  0
 83 84  1  0  0  0  0
 77 85  4  0  0  0  0
 83 85  4  0  0  0  0
 79 86  1  0  0  0  0
 86 87  1  0  0  0  0
 88 89  1  0  0  0  0
 89 90  4  0  0  0  0
 86 91  1  0  0  0  0
 90 91  1  0  0  0  0
 91 92  1  0  0  0  0
 91 93  1  0  0  0  0
 90 94  4  0  0  0  0
 94 95  1  0  0  0  0
 96 97  4  0  0  0  0
 97 98  1  0  0  0  0
 97 99  4  0  0  0  0
 99100  1  0  0  0  0
 99101  4  0  0  0  0
101102  4  0  0  0  0
102103  1  0  0  0  0
 96104  4  0  0  0  0
102104  4  0  0  0  0
104105  1  0  0  0  0
106107  1  0  0  0  0
106108  1  0  0  0  0
106109  1  0  0  0  0
 85112  1  0  0  0  0
 86112  1  0  0  0  0
 88112  4  0  0  0  0
 89113  4  0  0  0  0
 96113  1  0  0  0  0
 94114  4  0  0  0  0
113114  4  0  0  0  0
 95115  4  0  0  0  0
110115  1  0  0  0  0
111115  1  0  0  0  0
 88116  2  0  0  0  0
 95117  2  0  0  0  0
101118  1  0  0  0  0
106118  1  0  0  0  0
119120  1  0  0  0  0
119121  1  0  0  0  0
119122  1  0  0  0  0
122123  1  0  0  0  0
122124  1  0  0  0  0
122125  1  0  0  0  0
125126  1  0  0  0  0
125127  1  0  0  0  0
125128  1  0  0  0  0
128129  1  0  0  0  0
128130  1  0  0  0  0
128131  1  0  0  0  0
132133  1  0  0  0  0
132134  4  0  0  0  0
134135  4  0  0  0  0
132136  4  0  0  0  0
136137  1  0  0  0  0
119139  1  0  0  0  0
131139  4  0  0  0  0
134139  1  0  0  0  0
131140  2  0  0  0  0
135141  1  0  0  0  0
135142  4  0  0  0  0
142143  1  0  0  0  0
136144  4  0  0  0  0
142144  4  0  0  0  0
138145  1  0  0  0  0
145146  1  0  0  0  0
147148  1  0  0  0  0
148149  4  0  0  0  0
145150  1  0  0  0  0
149150  1  0  0  0  0
150151  1  0  0  0  0
150152  1  0  0  0  0
149153  4  0  0  0  0
153154  1  0  0  0  0
155156  4  0  0  0  0
156157  1  0  0  0  0
156158  4  0  0  0  0
158159  1  0  0  0  0
158160  4  0  0  0  0
160161  4  0  0  0  0
161162  1  0  0  0  0
155163  4  0  0  0  0
161163  4  0  0  0  0
163164  1  0  0  0  0
165166  1  0  0  0  0
165167  1  0  0  0  0
165168  1  0  0  0  0
144171  1  0  0  0  0
145171  1  0  0  0  0
147171  1  0  0  0  0
148172  4  0  0  0  0
155172  1  0  0  0  0
153173  4  0  0  0  0
172173  4  0  0  0  0
154174  4  0  0  0  0
169174  1  0  0  0  0
170174  1  0  0  0  0
147175  2  0  0  0  0
154176  2  0  0  0  0
160177  1  0  0  0  0
165177  1  0  0  0  0
178179  1  0  0  0  0
178180  1  0  0  0  0
182183  4  0  0  0  0
183184  1  0  0  0  0
185186  1  0  0  0  0
185187  1  0  0  0  0
185188  1  0  0  0  0
182189  1  0  0  0  0
185189  1  0  0  0  0
192193  1  0  0  0  0
192194  1  0  0  0  0
195196  1  0  0  0  0
196197  4  0  0  0  0
192198  1  0  0  0  0
197198  1  0  0  0  0
198199  1  0  0  0  0
198200  1  0  0  0  0
197201  4  0  0  0  0
201202  1  0  0  0  0
203204  4  0  0  0  0
204205  1  0  0  0  0
182206  4  0  0  0  0
204206  4  0  0  0  0
183207  4  0  0  0  0
203207  4  0  0  0  0
207208  1  0  0  0  0
190211  1  0  0  0  0
192211  1  0  0  0  0
195211  1  0  0  0  0
196212  4  0  0  0  0
203212  1  0  0  0  0
201213  4  0  0  0  0
212213  4  0  0  0  0
202214  4  0  0  0  0
209214  1  0  0  0  0
210214  1  0  0  0  0
195215  2  0  0  0  0
202216  2  0  0  0  0
217218  1  0  0  0  0
217219  1  0  0  0  0
217220  1  0  0  0  0
220221  1  0  0  0  0
220222  1  0  0  0  0
178223  1  0  0  0  0
220223  1  0  0  0  0
223224  1  0  0  0  0
223225  1  0  0  0  0
178226  1  0  0  0  0
181226  2  0  0  0  0
227228  1  0  0  0  0
227229  4  0  0  0  0
229230  4  0  0  0  0
230231  1  0  0  0  0
190232  4  0  0  0  0
230232  4  0  0  0  0
232233  1  0  0  0  0
190234  4  0  0  0  0
191234  1  0  0  0  0
227234  4  0  0  0  0
206235  1  0  0  0  0
217236  1  0  0  0  0
226236  4  0  0  0  0
229236  1  0  0  0  0
237238  1  0  0  0  0
237239  1  0  0  0  0
241242  4  0  0  0  0
242243  1  0  0  0  0
244245  1  0  0  0  0
244246  1  0  0  0  0
244247  1  0  0  0  0
241248  1  0  0  0  0
244248  1  0  0  0  0
251252  1  0  0  0  0
251253  1  0  0  0  0
254255  1  0  0  0  0
255256  4  0  0  0  0
251257  1  0  0  0  0
256257  1  0  0  0  0
257258  1  0  0  0  0
257259  1  0  0  0  0
256260  4  0  0  0  0
260261  1  0  0  0  0
262263  4  0  0  0  0
263264  1  0  0  0  0
241265  4  0  0  0  0
263265  4  0  0  0  0
242266  4  0  0  0  0
262266  4  0  0  0  0
266267  1  0  0  0  0
249270  1  0  0  0  0
251270  1  0  0  0  0
254270  1  0  0  0  0
255271  4  0  0  0  0
262271  1  0  0  0  0
260272  4  0  0  0  0
271272  4  0  0  0  0
261273  4  0  0  0  0
268273  1  0  0  0  0
269273  1  0  0  0  0
254274  2  0  0  0  0
261275  2  0  0  0  0
276277  1  0  0  0  0
276278  1  0  0  0  0
276279  1  0  0  0  0
279280  1  0  0  0  0
279281  1  0  0  0  0
237282  1  0  0  0  0
279282  1  0  0  0  0
282283  1  0  0  0  0
282284  1  0  0  0  0
237285  1  0  0  0  0
240285  2  0  0  0  0
286287  1  0  0  0  0
286288  4  0  0  0  0
288289  4  0  0  0  0
289290  1  0  0  0  0
249291  4  0  0  0  0
289291  4  0  0  0  0
291292  1  0  0  0  0
249293  4  0  0  0  0
250293  1  0  0  0  0
286293  4  0  0  0  0
265294  1  0  0  0  0
276295  1  0  0  0  0
285295  4  0  0  0  0
288295  1  0  0  0  0
297298  1  0  0  0  0
297299  4  0  0  0  0
300301  1  0  0  0  0
302303  1  0  0  0  0
303304  4  0  0  0  0
300305  1  0  0  0  0
304305  1  0  0  0  0
305306  1  0  0  0  0
305307  1  0  0  0  0
304308  4  0  0  0  0
308309  1  0  0  0  0
310311  4  0  0  0  0
311312  1  0  0  0  0
311313  4  0  0  0  0
313314  1  0  0  0  0
313315  4  0  0  0  0
315316  4  0  0  0  0
316317  1  0  0  0  0
310318  4  0  0  0  0
316318  4  0  0  0  0
318319  1  0  0  0  0
320321  1  0  0  0  0
320322  1  0  0  0  0
320323  1  0  0  0  0
299326  1  0  0  0  0
300326  1  0  0  0  0
302326  4  0  0  0  0
303327  4  0  0  0  0
310327  1  0  0  0  0
308328  4  0  0  0  0
327328  4  0  0  0  0
309329  4  0  0  0  0
324329  1  0  0  0  0
325329  1  0  0  0  0
302330  2  0  0  0  0
309331  2  0  0  0  0
315332  1  0  0  0  0
320332  1  0  0  0  0
333334  1  0  0  0  0
333335  1  0  0  0  0
333336  1  0  0  0  0
336337  1  0  0  0  0
336338  1  0  0  0  0
336339  1  0  0  0  0
339340  1  0  0  0  0
339341  1  0  0  0  0
339342  1  0  0  0  0
342343  1  0  0  0  0
342344  1  0  0  0  0
342345  1  0  0  0  0
346347  1  0  0  0  0
346348  4  0  0  0  0
296349  1  0  0  0  0
297349  4  0  0  0  0
348349  4  0  0  0  0
299350  4  0  0  0  0
346350  4  0  0  0  0
350351  1  0  0  0  0
300352  1  0  0  0  0
333353  1  0  0  0  0
345353  4  0  0  0  0
348353  1  0  0  0  0
345354  2  0  0  0  0
356357  1  0  0  0  0
356358  4  0  0  0  0
359360  1  0  0  0  0
361362  1  0  0  0  0
362363  4  0  0  0  0
359364  1  0  0  0  0
363364  1  0  0  0  0
364365  1  0  0  0  0
364366  1  0  0  0  0
363367  4  0  0  0  0
367368  1  0  0  0  0
369370  4  0  0  0  0
370371  1  0  0  0  0
370372  4  0  0  0  0
372373  1  0  0  0  0
372374  4  0  0  0  0
374375  4  0  0  0  0
375376  1  0  0  0  0
369377  4  0  0  0  0
375377  4  0  0  0  0
377378  1  0  0  0  0
379380  1  0  0  0  0
379381  1  0  0  0  0
379382  1  0  0  0  0
358385  1  0  0  0  0
359385  1  0  0  0  0
361385  1  0  0  0  0
362386  4  0  0  0  0
369386  1  0  0  0  0
367387  4  0  0  0  0
386387  4  0  0  0  0
368388  4  0  0  0  0
383388  1  0  0  0  0
384388  1  0  0  0  0
361389  2  0  0  0  0
368390  2  0  0  0  0
374391  1  0  0  0  0
379391  1  0  0  0  0
392393  1  0  0  0  0
392394  1  0  0  0  0
392395  1  0  0  0  0
395396  1  0  0  0  0
395397  1  0  0  0  0
395398  1  0  0  0  0
398399  1  0  0  0  0
398400  1  0  0  0  0
398401  1  0  0  0  0
401402  1  0  0  0  0
401403  1  0  0  0  0
401404  1  0  0  0  0
405406  1  0  0  0  0
405407  4  0  0  0  0
355408  1  0  0  0  0
356408  4  0  0  0  0
407408  4  0  0  0  0
358409  4  0  0  0  0
405409  4  0  0  0  0
409410  1  0  0  0  0
359411  1  0  0  0  0
392412  1  0  0  0  0
404412  4  0  0  0  0
407412  1  0  0  0  0
404413  2  0  0  0  0
M  END
