 xtb: 6.7.1pre (5071a88)
          10032617073D

266285  0     0  0            999 V2000
   27.3771   44.3265   36.7078 C   0  0  0  0  0  0  0  0  0  0  0  0
   27.7070   43.6565   35.5644 C   0  0  0  0  0  0  0  0  0  0  0  0
   27.7021   42.1679   35.5482 C   0  0  0  0  0  0  0  0  0  0  0  0
   28.5868   41.8284   35.7565 H   0  0  0  0  0  0  0  0  0  0  0  0
   27.4465   41.8436   34.6710 H   0  0  0  0  0  0  0  0  0  0  0  0
   27.9897   44.6556   34.6321 C   0  0  0  0  0  0  0  0  0  0  0  0
   28.4607   44.4820   33.2399 C   0  0  0  0  0  0  0  0  0  0  0  0
   27.1605   46.7800   37.2759 C   0  0  0  0  0  0  0  0  0  0  0  0
   26.0615   46.7322   38.1036 C   0  0  0  0  0  0  0  0  0  0  0  0
   25.5072   45.9852   38.0975 H   0  0  0  0  0  0  0  0  0  0  0  0
   25.7823   47.7912   38.9406 C   0  0  0  0  0  0  0  0  0  0  0  0
   25.0419   47.7584   39.5008 H   0  0  0  0  0  0  0  0  0  0  0  0
   26.5987   48.8959   38.9456 C   0  0  0  0  0  0  0  0  0  0  0  0
   27.6781   48.9552   38.0816 C   0  0  0  0  0  0  0  0  0  0  0  0
   28.2124   49.7156   38.0628 H   0  0  0  0  0  0  0  0  0  0  0  0
   27.9654   47.9023   37.2531 C   0  0  0  0  0  0  0  0  0  0  0  0
   28.6970   47.9425   36.6800 H   0  0  0  0  0  0  0  0  0  0  0  0
   25.4272   49.8642   40.7619 C   0  0  0  0  0  0  0  0  0  0  0  0
   25.4446   50.6458   41.3194 H   0  0  0  0  0  0  0  0  0  0  0  0
   25.5847   49.0844   41.2990 H   0  0  0  0  0  0  0  0  0  0  0  0
   24.5677   49.7932   40.3393 H   0  0  0  0  0  0  0  0  0  0  0  0
   28.6866   45.5325   31.6456 H   0  0  0  0  0  0  0  0  0  0  0  0
   28.0476   46.2426   32.7500 H   0  0  0  0  0  0  0  0  0  0  0  0
   26.9316   42.3368   37.9013 N   0  0  0  0  0  0  0  0  0  0  0  0
   27.4666   45.6626   36.4407 N   0  0  0  0  0  0  0  0  0  0  0  0
   27.8276   45.8753   35.1579 N   0  0  0  0  0  0  0  0  0  0  0  0
   28.4206   45.5681   32.4738 N   0  0  0  0  0  0  0  0  0  0  0  0
   27.2785   44.2510   39.0787 O   0  0  0  0  0  0  0  0  0  0  0  0
   28.8837   43.3985   32.8751 O   0  0  0  0  0  0  0  0  0  0  0  0
   26.4345   49.9674   39.7709 O   0  0  0  0  0  0  0  0  0  0  0  0
   17.7338   38.1452   51.1445 C   0  0  0  0  0  0  0  0  0  0  0  0
   17.0802   37.6010   51.6100 H   0  0  0  0  0  0  0  0  0  0  0  0
   17.2665   38.9146   50.7840 H   0  0  0  0  0  0  0  0  0  0  0  0
   17.6285   37.2060   48.9717 O   0  0  0  0  0  0  0  0  0  0  0  0
   21.0861   27.2362   46.8118 C   0  0  0  0  0  0  0  0  0  0  0  0
   22.1655   27.1769   45.9477 C   0  0  0  0  0  0  0  0  0  0  0  0
   22.6998   26.4165   45.9290 H   0  0  0  0  0  0  0  0  0  0  0  0
   19.9146   26.2679   48.6281 C   0  0  0  0  0  0  0  0  0  0  0  0
   19.9320   25.4863   49.1856 H   0  0  0  0  0  0  0  0  0  0  0  0
   20.0721   27.0477   49.1652 H   0  0  0  0  0  0  0  0  0  0  0  0
   19.0551   26.3389   48.2055 H   0  0  0  0  0  0  0  0  0  0  0  0
   20.9219   26.1647   47.6371 O   0  0  0  0  0  0  0  0  0  0  0  0
   20.9792   34.5206   46.9258 C   0  0  0  0  0  0  0  0  0  0  0  0
   22.3424   35.9939   46.8022 H   0  0  0  0  0  0  0  0  0  0  0  0
   21.1905   34.4300   44.4563 C   0  0  0  0  0  0  0  0  0  0  0  0
   20.2936   34.2207   44.1528 H   0  0  0  0  0  0  0  0  0  0  0  0
   21.2564   35.3931   44.5524 H   0  0  0  0  0  0  0  0  0  0  0  0
   21.6527   32.4515   45.8791 C   0  0  0  0  0  0  0  0  0  0  0  0
   21.8645   31.8056   44.5740 C   0  0  0  0  0  0  0  0  0  0  0  0
   22.1944   32.4756   43.4306 C   0  0  0  0  0  0  0  0  0  0  0  0
   22.1895   33.9642   43.4144 C   0  0  0  0  0  0  0  0  0  0  0  0
   23.0742   34.3037   43.6227 H   0  0  0  0  0  0  0  0  0  0  0  0
   21.9339   34.2885   42.5371 H   0  0  0  0  0  0  0  0  0  0  0  0
   22.4771   31.4765   42.4983 C   0  0  0  0  0  0  0  0  0  0  0  0
   22.9481   31.6501   41.1061 C   0  0  0  0  0  0  0  0  0  0  0  0
   21.6479   29.3521   45.1421 C   0  0  0  0  0  0  0  0  0  0  0  0
   20.5489   29.3999   45.9698 C   0  0  0  0  0  0  0  0  0  0  0  0
   19.9946   30.1469   45.9636 H   0  0  0  0  0  0  0  0  0  0  0  0
   20.2697   28.3409   46.8067 C   0  0  0  0  0  0  0  0  0  0  0  0
   22.4528   28.2298   45.1193 C   0  0  0  0  0  0  0  0  0  0  0  0
   23.1844   28.1896   44.5461 H   0  0  0  0  0  0  0  0  0  0  0  0
   23.1740   30.5996   39.5118 H   0  0  0  0  0  0  0  0  0  0  0  0
   22.5350   29.8895   40.6162 H   0  0  0  0  0  0  0  0  0  0  0  0
   21.4190   33.7953   45.7674 N   0  0  0  0  0  0  0  0  0  0  0  0
   21.9540   30.4695   44.3069 N   0  0  0  0  0  0  0  0  0  0  0  0
   22.3150   30.2568   43.0240 N   0  0  0  0  0  0  0  0  0  0  0  0
   22.9080   30.5640   40.3399 N   0  0  0  0  0  0  0  0  0  0  0  0
   21.7659   31.8811   46.9449 O   0  0  0  0  0  0  0  0  0  0  0  0
   23.3711   32.7336   40.7413 O   0  0  0  0  0  0  0  0  0  0  0  0
   20.4006   37.0355   51.2750 C   0  0  0  0  0  0  0  0  0  0  0  0
   21.0948   37.6522   50.9917 H   0  0  0  0  0  0  0  0  0  0  0  0
   20.8315   36.2029   51.5234 H   0  0  0  0  0  0  0  0  0  0  0  0
   19.7330   37.5913   52.4586 C   0  0  0  0  0  0  0  0  0  0  0  0
   19.2935   36.8701   52.9378 H   0  0  0  0  0  0  0  0  0  0  0  0
   20.4030   37.9705   53.0479 H   0  0  0  0  0  0  0  0  0  0  0  0
   18.7365   38.6280   52.1387 C   0  0  0  0  0  0  0  0  0  0  0  0
   18.2789   38.8938   52.9519 H   0  0  0  0  0  0  0  0  0  0  0  0
   19.1901   39.4087   51.7830 H   0  0  0  0  0  0  0  0  0  0  0  0
   18.2833   37.3475   50.0007 C   0  0  0  0  0  0  0  0  0  0  0  0
   21.1200   36.4461   48.3351 C   0  0  0  0  0  0  0  0  0  0  0  0
   21.5319   37.2494   48.5610 H   0  0  0  0  0  0  0  0  0  0  0  0
   20.0328   36.0043   49.0577 C   0  0  0  0  0  0  0  0  0  0  0  0
   19.4451   34.8050   48.7267 C   0  0  0  0  0  0  0  0  0  0  0  0
   18.7299   34.4878   49.2297 H   0  0  0  0  0  0  0  0  0  0  0  0
   19.9075   34.0726   47.6591 C   0  0  0  0  0  0  0  0  0  0  0  0
   19.4932   33.2711   47.4330 H   0  0  0  0  0  0  0  0  0  0  0  0
   21.5993   35.6997   47.2781 C   0  0  0  0  0  0  0  0  0  0  0  0
   19.5293   28.3737   47.3670 H   0  0  0  0  0  0  0  0  0  0  0  0
   19.5032   36.7826   50.1412 N   0  0  0  0  0  0  0  0  0  0  0  0
   17.7338   51.9874   51.1445 C   0  0  0  0  0  0  0  0  0  0  0  0
   17.0802   51.4432   51.6100 H   0  0  0  0  0  0  0  0  0  0  0  0
   17.2665   52.7568   50.7840 H   0  0  0  0  0  0  0  0  0  0  0  0
   17.6285   51.0482   48.9717 O   0  0  0  0  0  0  0  0  0  0  0  0
   21.0861   41.0784   46.8118 C   0  0  0  0  0  0  0  0  0  0  0  0
   22.1655   41.0191   45.9477 C   0  0  0  0  0  0  0  0  0  0  0  0
   22.6998   40.2587   45.9290 H   0  0  0  0  0  0  0  0  0  0  0  0
   19.9146   40.1101   48.6281 C   0  0  0  0  0  0  0  0  0  0  0  0
   19.9320   39.3285   49.1856 H   0  0  0  0  0  0  0  0  0  0  0  0
   20.0721   40.8899   49.1652 H   0  0  0  0  0  0  0  0  0  0  0  0
   19.0551   40.1811   48.2055 H   0  0  0  0  0  0  0  0  0  0  0  0
   20.9219   40.0069   47.6371 O   0  0  0  0  0  0  0  0  0  0  0  0
   20.9792   48.3628   46.9258 C   0  0  0  0  0  0  0  0  0  0  0  0
   22.3424   49.8361   46.8022 H   0  0  0  0  0  0  0  0  0  0  0  0
   21.1905   48.2722   44.4563 C   0  0  0  0  0  0  0  0  0  0  0  0
   20.2936   48.0629   44.1528 H   0  0  0  0  0  0  0  0  0  0  0  0
   21.2564   49.2353   44.5524 H   0  0  0  0  0  0  0  0  0  0  0  0
   21.6527   46.2937   45.8791 C   0  0  0  0  0  0  0  0  0  0  0  0
   21.8645   45.6478   44.5740 C   0  0  0  0  0  0  0  0  0  0  0  0
   22.1944   46.3178   43.4306 C   0  0  0  0  0  0  0  0  0  0  0  0
   22.1895   47.8064   43.4144 C   0  0  0  0  0  0  0  0  0  0  0  0
   23.0742   48.1459   43.6227 H   0  0  0  0  0  0  0  0  0  0  0  0
   21.9339   48.1307   42.5371 H   0  0  0  0  0  0  0  0  0  0  0  0
   22.4771   45.3187   42.4983 C   0  0  0  0  0  0  0  0  0  0  0  0
   22.9481   45.4923   41.1061 C   0  0  0  0  0  0  0  0  0  0  0  0
   21.6479   43.1943   45.1421 C   0  0  0  0  0  0  0  0  0  0  0  0
   20.5489   43.2421   45.9698 C   0  0  0  0  0  0  0  0  0  0  0  0
   19.9946   43.9891   45.9636 H   0  0  0  0  0  0  0  0  0  0  0  0
   20.2697   42.1831   46.8067 C   0  0  0  0  0  0  0  0  0  0  0  0
   22.4528   42.0720   45.1193 C   0  0  0  0  0  0  0  0  0  0  0  0
   23.1844   42.0318   44.5461 H   0  0  0  0  0  0  0  0  0  0  0  0
   23.1740   44.4418   39.5118 H   0  0  0  0  0  0  0  0  0  0  0  0
   22.5350   43.7317   40.6162 H   0  0  0  0  0  0  0  0  0  0  0  0
   21.4190   47.6375   45.7674 N   0  0  0  0  0  0  0  0  0  0  0  0
   21.9540   44.3117   44.3069 N   0  0  0  0  0  0  0  0  0  0  0  0
   22.3150   44.0990   43.0240 N   0  0  0  0  0  0  0  0  0  0  0  0
   22.9080   44.4062   40.3399 N   0  0  0  0  0  0  0  0  0  0  0  0
   21.7659   45.7233   46.9449 O   0  0  0  0  0  0  0  0  0  0  0  0
   23.3711   46.5758   40.7413 O   0  0  0  0  0  0  0  0  0  0  0  0
   20.4006   50.8777   51.2750 C   0  0  0  0  0  0  0  0  0  0  0  0
   21.0948   51.4944   50.9917 H   0  0  0  0  0  0  0  0  0  0  0  0
   20.8315   50.0451   51.5234 H   0  0  0  0  0  0  0  0  0  0  0  0
   19.7330   51.4335   52.4586 C   0  0  0  0  0  0  0  0  0  0  0  0
   19.2935   50.7123   52.9378 H   0  0  0  0  0  0  0  0  0  0  0  0
   20.4030   51.8127   53.0479 H   0  0  0  0  0  0  0  0  0  0  0  0
   18.7365   52.4702   52.1387 C   0  0  0  0  0  0  0  0  0  0  0  0
   18.2789   52.7360   52.9519 H   0  0  0  0  0  0  0  0  0  0  0  0
   19.1901   53.2509   51.7830 H   0  0  0  0  0  0  0  0  0  0  0  0
   18.2833   51.1897   50.0007 C   0  0  0  0  0  0  0  0  0  0  0  0
   21.1200   50.2883   48.3351 C   0  0  0  0  0  0  0  0  0  0  0  0
   21.5319   51.0916   48.5610 H   0  0  0  0  0  0  0  0  0  0  0  0
   20.0328   49.8465   49.0577 C   0  0  0  0  0  0  0  0  0  0  0  0
   19.4451   48.6472   48.7267 C   0  0  0  0  0  0  0  0  0  0  0  0
   18.7299   48.3300   49.2297 H   0  0  0  0  0  0  0  0  0  0  0  0
   19.9075   47.9148   47.6591 C   0  0  0  0  0  0  0  0  0  0  0  0
   19.4932   47.1133   47.4330 H   0  0  0  0  0  0  0  0  0  0  0  0
   21.5993   49.5419   47.2781 C   0  0  0  0  0  0  0  0  0  0  0  0
   19.5293   42.2159   47.3670 H   0  0  0  0  0  0  0  0  0  0  0  0
   19.5032   50.6248   50.1412 N   0  0  0  0  0  0  0  0  0  0  0  0
   22.8395   27.5667   37.2983 H   0  0  0  0  0  0  0  0  0  0  0  0
   21.6619   27.1515   38.8688 C   0  0  0  0  0  0  0  0  0  0  0  0
   22.0762   26.3500   39.0949 H   0  0  0  0  0  0  0  0  0  0  0  0
   20.5902   27.5995   39.6021 C   0  0  0  0  0  0  0  0  0  0  0  0
   20.3789   27.5089   42.0716 C   0  0  0  0  0  0  0  0  0  0  0  0
   21.2758   27.2996   42.3751 H   0  0  0  0  0  0  0  0  0  0  0  0
   19.9167   25.5304   40.6488 C   0  0  0  0  0  0  0  0  0  0  0  0
   19.7049   24.8845   41.9539 C   0  0  0  0  0  0  0  0  0  0  0  0
   19.3750   25.5545   43.0974 C   0  0  0  0  0  0  0  0  0  0  0  0
   19.3799   27.0431   43.1136 C   0  0  0  0  0  0  0  0  0  0  0  0
   18.4952   27.3826   42.9053 H   0  0  0  0  0  0  0  0  0  0  0  0
   19.6355   27.3674   43.9908 H   0  0  0  0  0  0  0  0  0  0  0  0
   19.0923   24.5554   44.0297 C   0  0  0  0  0  0  0  0  0  0  0  0
   18.6213   24.7290   45.4218 C   0  0  0  0  0  0  0  0  0  0  0  0
   19.9215   22.4310   41.3858 C   0  0  0  0  0  0  0  0  0  0  0  0
   21.0205   22.4788   40.5582 C   0  0  0  0  0  0  0  0  0  0  0  0
   21.5748   23.2258   40.5643 H   0  0  0  0  0  0  0  0  0  0  0  0
   21.2997   21.4198   39.7212 C   0  0  0  0  0  0  0  0  0  0  0  0
   22.0401   21.4526   39.1610 H   0  0  0  0  0  0  0  0  0  0  0  0
   20.4833   20.3151   39.7162 C   0  0  0  0  0  0  0  0  0  0  0  0
   19.4039   20.2558   40.5802 C   0  0  0  0  0  0  0  0  0  0  0  0
   18.8697   19.4954   40.5989 H   0  0  0  0  0  0  0  0  0  0  0  0
   19.1166   21.3087   41.4086 C   0  0  0  0  0  0  0  0  0  0  0  0
   18.3850   21.2685   41.9818 H   0  0  0  0  0  0  0  0  0  0  0  0
   21.6548   19.3468   37.8999 C   0  0  0  0  0  0  0  0  0  0  0  0
   21.6374   18.5652   37.3423 H   0  0  0  0  0  0  0  0  0  0  0  0
   21.4973   20.1266   37.3628 H   0  0  0  0  0  0  0  0  0  0  0  0
   22.5143   19.4178   38.3224 H   0  0  0  0  0  0  0  0  0  0  0  0
   18.3954   23.6785   47.0161 H   0  0  0  0  0  0  0  0  0  0  0  0
   19.0344   22.9684   45.9117 H   0  0  0  0  0  0  0  0  0  0  0  0
   20.1504   26.8742   40.7605 N   0  0  0  0  0  0  0  0  0  0  0  0
   19.6154   23.5484   42.2211 N   0  0  0  0  0  0  0  0  0  0  0  0
   19.2544   23.3357   43.5039 N   0  0  0  0  0  0  0  0  0  0  0  0
   18.6614   23.6429   46.1880 N   0  0  0  0  0  0  0  0  0  0  0  0
   19.8035   24.9600   39.5831 O   0  0  0  0  0  0  0  0  0  0  0  0
   18.1983   25.8125   45.7866 O   0  0  0  0  0  0  0  0  0  0  0  0
   20.6475   19.2436   38.8908 O   0  0  0  0  0  0  0  0  0  0  0  0
   21.1688   30.1144   35.2529 C   0  0  0  0  0  0  0  0  0  0  0  0
   20.4746   30.7311   35.5362 H   0  0  0  0  0  0  0  0  0  0  0  0
   20.7379   29.2818   35.0045 H   0  0  0  0  0  0  0  0  0  0  0  0
   21.8364   30.6702   34.0693 C   0  0  0  0  0  0  0  0  0  0  0  0
   22.2759   29.9490   33.5901 H   0  0  0  0  0  0  0  0  0  0  0  0
   21.1664   31.0494   33.4800 H   0  0  0  0  0  0  0  0  0  0  0  0
   22.8329   31.7069   34.3892 C   0  0  0  0  0  0  0  0  0  0  0  0
   23.2905   31.9727   33.5760 H   0  0  0  0  0  0  0  0  0  0  0  0
   22.3793   32.4876   34.7449 H   0  0  0  0  0  0  0  0  0  0  0  0
   23.8356   31.2241   35.3835 C   0  0  0  0  0  0  0  0  0  0  0  0
   24.4892   30.6799   34.9179 H   0  0  0  0  0  0  0  0  0  0  0  0
   24.3029   31.9935   35.7439 H   0  0  0  0  0  0  0  0  0  0  0  0
   23.2862   30.4264   36.5272 C   0  0  0  0  0  0  0  0  0  0  0  0
   20.4494   29.5250   38.1928 C   0  0  0  0  0  0  0  0  0  0  0  0
   20.0376   30.3283   37.9669 H   0  0  0  0  0  0  0  0  0  0  0  0
   21.5366   29.0832   37.4702 C   0  0  0  0  0  0  0  0  0  0  0  0
   22.1243   27.8839   37.8012 C   0  0  0  0  0  0  0  0  0  0  0  0
   19.9701   28.7786   39.2499 C   0  0  0  0  0  0  0  0  0  0  0  0
   19.2271   29.0728   39.7258 H   0  0  0  0  0  0  0  0  0  0  0  0
   20.3130   28.4720   41.9755 H   0  0  0  0  0  0  0  0  0  0  0  0
   22.0662   29.8615   36.3867 N   0  0  0  0  0  0  0  0  0  0  0  0
   23.9409   30.2849   37.5563 O   0  0  0  0  0  0  0  0  0  0  0  0
   22.8395   55.2511   37.2983 H   0  0  0  0  0  0  0  0  0  0  0  0
   21.6619   54.8359   38.8688 C   0  0  0  0  0  0  0  0  0  0  0  0
   22.0762   54.0344   39.0949 H   0  0  0  0  0  0  0  0  0  0  0  0
   20.5902   55.2839   39.6021 C   0  0  0  0  0  0  0  0  0  0  0  0
   20.3789   55.1933   42.0716 C   0  0  0  0  0  0  0  0  0  0  0  0
   21.2758   54.9840   42.3751 H   0  0  0  0  0  0  0  0  0  0  0  0
   19.9167   53.2148   40.6488 C   0  0  0  0  0  0  0  0  0  0  0  0
   19.7049   52.5689   41.9539 C   0  0  0  0  0  0  0  0  0  0  0  0
   19.3750   53.2389   43.0974 C   0  0  0  0  0  0  0  0  0  0  0  0
   19.3799   54.7275   43.1136 C   0  0  0  0  0  0  0  0  0  0  0  0
   18.4952   55.0670   42.9053 H   0  0  0  0  0  0  0  0  0  0  0  0
   19.6355   55.0518   43.9908 H   0  0  0  0  0  0  0  0  0  0  0  0
   19.0923   52.2398   44.0297 C   0  0  0  0  0  0  0  0  0  0  0  0
   18.6213   52.4134   45.4218 C   0  0  0  0  0  0  0  0  0  0  0  0
   19.9215   50.1154   41.3858 C   0  0  0  0  0  0  0  0  0  0  0  0
   21.0205   50.1632   40.5582 C   0  0  0  0  0  0  0  0  0  0  0  0
   21.5748   50.9102   40.5643 H   0  0  0  0  0  0  0  0  0  0  0  0
   21.2997   49.1042   39.7212 C   0  0  0  0  0  0  0  0  0  0  0  0
   22.0401   49.1370   39.1610 H   0  0  0  0  0  0  0  0  0  0  0  0
   20.4833   47.9995   39.7162 C   0  0  0  0  0  0  0  0  0  0  0  0
   19.4039   47.9402   40.5802 C   0  0  0  0  0  0  0  0  0  0  0  0
   18.8697   47.1798   40.5989 H   0  0  0  0  0  0  0  0  0  0  0  0
   19.1166   48.9931   41.4086 C   0  0  0  0  0  0  0  0  0  0  0  0
   18.3850   48.9529   41.9818 H   0  0  0  0  0  0  0  0  0  0  0  0
   21.6548   47.0312   37.8999 C   0  0  0  0  0  0  0  0  0  0  0  0
   21.6374   46.2496   37.3423 H   0  0  0  0  0  0  0  0  0  0  0  0
   21.4973   47.8110   37.3628 H   0  0  0  0  0  0  0  0  0  0  0  0
   22.5143   47.1022   38.3224 H   0  0  0  0  0  0  0  0  0  0  0  0
   18.3954   51.3629   47.0161 H   0  0  0  0  0  0  0  0  0  0  0  0
   19.0344   50.6528   45.9117 H   0  0  0  0  0  0  0  0  0  0  0  0
   20.1504   54.5586   40.7605 N   0  0  0  0  0  0  0  0  0  0  0  0
   19.6154   51.2328   42.2211 N   0  0  0  0  0  0  0  0  0  0  0  0
   19.2544   51.0201   43.5039 N   0  0  0  0  0  0  0  0  0  0  0  0
   18.6614   51.3273   46.1880 N   0  0  0  0  0  0  0  0  0  0  0  0
   19.8035   52.6444   39.5831 O   0  0  0  0  0  0  0  0  0  0  0  0
   18.1983   53.4969   45.7866 O   0  0  0  0  0  0  0  0  0  0  0  0
   20.6475   46.9280   38.8908 O   0  0  0  0  0  0  0  0  0  0  0  0
   21.1688   57.7988   35.2529 C   0  0  0  0  0  0  0  0  0  0  0  0
   20.4746   58.4155   35.5362 H   0  0  0  0  0  0  0  0  0  0  0  0
   20.7379   56.9662   35.0045 H   0  0  0  0  0  0  0  0  0  0  0  0
   21.8364   58.3546   34.0693 C   0  0  0  0  0  0  0  0  0  0  0  0
   22.2759   57.6334   33.5901 H   0  0  0  0  0  0  0  0  0  0  0  0
   21.1664   58.7338   33.4800 H   0  0  0  0  0  0  0  0  0  0  0  0
   22.8329   59.3913   34.3892 C   0  0  0  0  0  0  0  0  0  0  0  0
   23.2905   59.6571   33.5760 H   0  0  0  0  0  0  0  0  0  0  0  0
   22.3793   60.1720   34.7449 H   0  0  0  0  0  0  0  0  0  0  0  0
   23.8356   58.9085   35.3835 C   0  0  0  0  0  0  0  0  0  0  0  0
   24.4892   58.3643   34.9179 H   0  0  0  0  0  0  0  0  0  0  0  0
   24.3029   59.6779   35.7439 H   0  0  0  0  0  0  0  0  0  0  0  0
   23.2862   58.1108   36.5272 C   0  0  0  0  0  0  0  0  0  0  0  0
   20.4494   57.2094   38.1928 C   0  0  0  0  0  0  0  0  0  0  0  0
   20.0376   58.0127   37.9669 H   0  0  0  0  0  0  0  0  0  0  0  0
   21.5366   56.7676   37.4702 C   0  0  0  0  0  0  0  0  0  0  0  0
   22.1243   55.5683   37.8012 C   0  0  0  0  0  0  0  0  0  0  0  0
   19.9701   56.4630   39.2499 C   0  0  0  0  0  0  0  0  0  0  0  0
   19.2271   56.7572   39.7258 H   0  0  0  0  0  0  0  0  0  0  0  0
   20.3130   56.1564   41.9755 H   0  0  0  0  0  0  0  0  0  0  0  0
   22.0662   57.5459   36.3867 N   0  0  0  0  0  0  0  0  0  0  0  0
   23.9409   57.9693   37.5563 O   0  0  0  0  0  0  0  0  0  0  0  0
  1  2  4  0  0  0  0
  2  3  1  0  0  0  0
  3  4  1  0  0  0  0
  3  5  1  0  0  0  0
  2  6  4  0  0  0  0
  6  7  1  0  0  0  0
  8  9  4  0  0  0  0
  9 10  1  0  0  0  0
  9 11  4  0  0  0  0
 11 12  1  0  0  0  0
 11 13  4  0  0  0  0
 13 14  4  0  0  0  0
 14 15  1  0  0  0  0
  8 16  4  0  0  0  0
 14 16  4  0  0  0  0
 16 17  1  0  0  0  0
 18 19  1  0  0  0  0
 18 20  1  0  0  0  0
 18 21  1  0  0  0  0
  1 24  1  0  0  0  0
  3 24  1  0  0  0  0
  1 25  4  0  0  0  0
  8 25  1  0  0  0  0
  6 26  4  0  0  0  0
 25 26  1  0  0  0  0
  7 27  4  0  0  0  0
 22 27  1  0  0  0  0
 23 27  1  0  0  0  0
  1 28  1  0  0  0  0
 24 28  1  0  0  0  0
  7 29  2  0  0  0  0
 13 30  1  0  0  0  0
 18 30  1  0  0  0  0
 31 32  1  0  0  0  0
 31 33  1  0  0  0  0
 35 36  4  0  0  0  0
 36 37  1  0  0  0  0
 38 39  1  0  0  0  0
 38 40  1  0  0  0  0
 38 41  1  0  0  0  0
 35 42  1  0  0  0  0
 38 42  1  0  0  0  0
 45 46  1  0  0  0  0
 45 47  1  0  0  0  0
 48 49  1  0  0  0  0
 49 50  4  0  0  0  0
 45 51  1  0  0  0  0
 50 51  1  0  0  0  0
 51 52  1  0  0  0  0
 51 53  1  0  0  0  0
 50 54  4  0  0  0  0
 54 55  1  0  0  0  0
 56 57  4  0  0  0  0
 57 58  1  0  0  0  0
 35 59  4  0  0  0  0
 57 59  4  0  0  0  0
 36 60  4  0  0  0  0
 56 60  4  0  0  0  0
 60 61  1  0  0  0  0
 43 64  1  0  0  0  0
 45 64  1  0  0  0  0
 48 64  4  0  0  0  0
 49 65  4  0  0  0  0
 56 65  1  0  0  0  0
 54 66  4  0  0  0  0
 65 66  4  0  0  0  0
 55 67  4  0  0  0  0
 62 67  1  0  0  0  0
 63 67  1  0  0  0  0
 48 68  2  0  0  0  0
 55 69  2  0  0  0  0
 70 71  1  0  0  0  0
 70 72  1  0  0  0  0
 70 73  1  0  0  0  0
 73 74  1  0  0  0  0
 73 75  1  0  0  0  0
 31 76  1  0  0  0  0
 73 76  1  0  0  0  0
 76 77  1  0  0  0  0
 76 78  1  0  0  0  0
 31 79  1  0  0  0  0
 34 79  2  0  0  0  0
 80 81  1  0  0  0  0
 80 82  4  0  0  0  0
 82 83  4  0  0  0  0
 83 84  1  0  0  0  0
 43 85  4  0  0  0  0
 83 85  4  0  0  0  0
 85 86  1  0  0  0  0
 43 87  4  0  0  0  0
 44 87  1  0  0  0  0
 80 87  4  0  0  0  0
 59 88  1  0  0  0  0
 70 89  1  0  0  0  0
 79 89  4  0  0  0  0
 82 89  1  0  0  0  0
 90 91  1  0  0  0  0
 90 92  1  0  0  0  0
 94 95  4  0  0  0  0
 95 96  1  0  0  0  0
 97 98  1  0  0  0  0
 97 99  1  0  0  0  0
 97100  1  0  0  0  0
 94101  1  0  0  0  0
 97101  1  0  0  0  0
104105  1  0  0  0  0
104106  1  0  0  0  0
107108  1  0  0  0  0
108109  4  0  0  0  0
104110  1  0  0  0  0
109110  1  0  0  0  0
110111  1  0  0  0  0
110112  1  0  0  0  0
109113  4  0  0  0  0
113114  1  0  0  0  0
115116  4  0  0  0  0
116117  1  0  0  0  0
 94118  4  0  0  0  0
116118  4  0  0  0  0
 95119  4  0  0  0  0
115119  4  0  0  0  0
119120  1  0  0  0  0
102123  1  0  0  0  0
104123  1  0  0  0  0
107123  1  0  0  0  0
108124  4  0  0  0  0
115124  1  0  0  0  0
113125  4  0  0  0  0
124125  4  0  0  0  0
114126  4  0  0  0  0
121126  1  0  0  0  0
122126  1  0  0  0  0
107127  2  0  0  0  0
114128  2  0  0  0  0
129130  1  0  0  0  0
129131  1  0  0  0  0
129132  1  0  0  0  0
132133  1  0  0  0  0
132134  1  0  0  0  0
 90135  1  0  0  0  0
132135  1  0  0  0  0
135136  1  0  0  0  0
135137  1  0  0  0  0
 90138  1  0  0  0  0
 93138  2  0  0  0  0
139140  1  0  0  0  0
139141  4  0  0  0  0
141142  4  0  0  0  0
142143  1  0  0  0  0
102144  4  0  0  0  0
142144  4  0  0  0  0
144145  1  0  0  0  0
102146  4  0  0  0  0
103146  1  0  0  0  0
139146  4  0  0  0  0
118147  1  0  0  0  0
129148  1  0  0  0  0
138148  4  0  0  0  0
141148  1  0  0  0  0
150151  1  0  0  0  0
150152  4  0  0  0  0
153154  1  0  0  0  0
155156  1  0  0  0  0
156157  4  0  0  0  0
153158  1  0  0  0  0
157158  1  0  0  0  0
158159  1  0  0  0  0
158160  1  0  0  0  0
157161  4  0  0  0  0
161162  1  0  0  0  0
163164  4  0  0  0  0
164165  1  0  0  0  0
164166  4  0  0  0  0
166167  1  0  0  0  0
166168  4  0  0  0  0
168169  4  0  0  0  0
169170  1  0  0  0  0
163171  4  0  0  0  0
169171  4  0  0  0  0
171172  1  0  0  0  0
173174  1  0  0  0  0
173175  1  0  0  0  0
173176  1  0  0  0  0
152179  1  0  0  0  0
153179  1  0  0  0  0
155179  1  0  0  0  0
156180  4  0  0  0  0
163180  1  0  0  0  0
161181  4  0  0  0  0
180181  4  0  0  0  0
162182  4  0  0  0  0
177182  1  0  0  0  0
178182  1  0  0  0  0
155183  2  0  0  0  0
162184  2  0  0  0  0
168185  1  0  0  0  0
173185  1  0  0  0  0
186187  1  0  0  0  0
186188  1  0  0  0  0
186189  1  0  0  0  0
189190  1  0  0  0  0
189191  1  0  0  0  0
189192  1  0  0  0  0
192193  1  0  0  0  0
192194  1  0  0  0  0
192195  1  0  0  0  0
195196  1  0  0  0  0
195197  1  0  0  0  0
195198  1  0  0  0  0
199200  1  0  0  0  0
199201  4  0  0  0  0
149202  1  0  0  0  0
150202  4  0  0  0  0
201202  4  0  0  0  0
152203  4  0  0  0  0
199203  4  0  0  0  0
203204  1  0  0  0  0
153205  1  0  0  0  0
186206  1  0  0  0  0
198206  4  0  0  0  0
201206  1  0  0  0  0
198207  2  0  0  0  0
209210  1  0  0  0  0
209211  4  0  0  0  0
212213  1  0  0  0  0
214215  1  0  0  0  0
215216  4  0  0  0  0
212217  1  0  0  0  0
216217  1  0  0  0  0
217218  1  0  0  0  0
217219  1  0  0  0  0
216220  4  0  0  0  0
220221  1  0  0  0  0
222223  4  0  0  0  0
223224  1  0  0  0  0
223225  4  0  0  0  0
225226  1  0  0  0  0
225227  4  0  0  0  0
227228  4  0  0  0  0
228229  1  0  0  0  0
222230  4  0  0  0  0
228230  4  0  0  0  0
230231  1  0  0  0  0
232233  1  0  0  0  0
232234  1  0  0  0  0
232235  1  0  0  0  0
211238  1  0  0  0  0
212238  1  0  0  0  0
214238  4  0  0  0  0
215239  4  0  0  0  0
222239  1  0  0  0  0
220240  4  0  0  0  0
239240  4  0  0  0  0
221241  4  0  0  0  0
236241  1  0  0  0  0
237241  1  0  0  0  0
214242  2  0  0  0  0
221243  2  0  0  0  0
227244  1  0  0  0  0
232244  1  0  0  0  0
245246  1  0  0  0  0
245247  1  0  0  0  0
245248  1  0  0  0  0
248249  1  0  0  0  0
248250  1  0  0  0  0
248251  1  0  0  0  0
251252  1  0  0  0  0
251253  1  0  0  0  0
251254  1  0  0  0  0
254255  1  0  0  0  0
254256  1  0  0  0  0
254257  1  0  0  0  0
258259  1  0  0  0  0
258260  4  0  0  0  0
208261  1  0  0  0  0
209261  4  0  0  0  0
260261  4  0  0  0  0
211262  4  0  0  0  0
258262  4  0  0  0  0
262263  1  0  0  0  0
212264  1  0  0  0  0
245265  1  0  0  0  0
257265  4  0  0  0  0
260265  1  0  0  0  0
257266  2  0  0  0  0
M  END
