 xtb: 6.7.1pre (5071a88)
          10032619103D

885945  0     0  0            999 V2000
   22.8395   41.4089   37.2983 H   0  0  0  0  0  0  0  0  0  0  0  0
   21.6619   40.9937   38.8688 C   0  0  0  0  0  0  0  0  0  0  0  0
   22.0762   40.1922   39.0949 H   0  0  0  0  0  0  0  0  0  0  0  0
   20.5902   41.4417   39.6021 C   0  0  0  0  0  0  0  0  0  0  0  0
   20.3789   41.3511   42.0716 C   0  0  0  0  0  0  0  0  0  0  0  0
   21.2758   41.1418   42.3751 H   0  0  0  0  0  0  0  0  0  0  0  0
   19.9167   39.3726   40.6488 C   0  0  0  0  0  0  0  0  0  0  0  0
   19.7049   38.7267   41.9539 C   0  0  0  0  0  0  0  0  0  0  0  0
   19.3750   39.3967   43.0974 C   0  0  0  0  0  0  0  0  0  0  0  0
   19.3799   40.8853   43.1136 C   0  0  0  0  0  0  0  0  0  0  0  0
   18.4952   41.2248   42.9053 H   0  0  0  0  0  0  0  0  0  0  0  0
   19.6355   41.2096   43.9908 H   0  0  0  0  0  0  0  0  0  0  0  0
   19.0923   38.3976   44.0297 C   0  0  0  0  0  0  0  0  0  0  0  0
   18.6213   38.5712   45.4218 C   0  0  0  0  0  0  0  0  0  0  0  0
   19.9215   36.2732   41.3858 C   0  0  0  0  0  0  0  0  0  0  0  0
   21.0205   36.3210   40.5582 C   0  0  0  0  0  0  0  0  0  0  0  0
   21.5748   37.0680   40.5643 H   0  0  0  0  0  0  0  0  0  0  0  0
   21.2997   35.2620   39.7212 C   0  0  0  0  0  0  0  0  0  0  0  0
   22.0401   35.2948   39.1610 H   0  0  0  0  0  0  0  0  0  0  0  0
   20.4833   34.1573   39.7162 C   0  0  0  0  0  0  0  0  0  0  0  0
   19.4039   34.0980   40.5802 C   0  0  0  0  0  0  0  0  0  0  0  0
   18.8697   33.3376   40.5989 H   0  0  0  0  0  0  0  0  0  0  0  0
   19.1166   35.1509   41.4086 C   0  0  0  0  0  0  0  0  0  0  0  0
   18.3850   35.1107   41.9818 H   0  0  0  0  0  0  0  0  0  0  0  0
   21.6548   33.1890   37.8999 C   0  0  0  0  0  0  0  0  0  0  0  0
   21.6374   32.4074   37.3423 H   0  0  0  0  0  0  0  0  0  0  0  0
   21.4973   33.9688   37.3628 H   0  0  0  0  0  0  0  0  0  0  0  0
   22.5143   33.2600   38.3224 H   0  0  0  0  0  0  0  0  0  0  0  0
   18.3954   37.5207   47.0161 H   0  0  0  0  0  0  0  0  0  0  0  0
   19.0344   36.8106   45.9117 H   0  0  0  0  0  0  0  0  0  0  0  0
   20.1504   40.7164   40.7605 N   0  0  0  0  0  0  0  0  0  0  0  0
   19.6154   37.3906   42.2211 N   0  0  0  0  0  0  0  0  0  0  0  0
   19.2544   37.1779   43.5039 N   0  0  0  0  0  0  0  0  0  0  0  0
   18.6614   37.4851   46.1880 N   0  0  0  0  0  0  0  0  0  0  0  0
   19.8035   38.8022   39.5831 O   0  0  0  0  0  0  0  0  0  0  0  0
   18.1983   39.6547   45.7866 O   0  0  0  0  0  0  0  0  0  0  0  0
   20.6475   33.0858   38.8908 O   0  0  0  0  0  0  0  0  0  0  0  0
   21.1688   43.9566   35.2529 C   0  0  0  0  0  0  0  0  0  0  0  0
   20.4746   44.5733   35.5362 H   0  0  0  0  0  0  0  0  0  0  0  0
   20.7379   43.1240   35.0045 H   0  0  0  0  0  0  0  0  0  0  0  0
   21.8364   44.5124   34.0693 C   0  0  0  0  0  0  0  0  0  0  0  0
   22.2759   43.7912   33.5901 H   0  0  0  0  0  0  0  0  0  0  0  0
   21.1664   44.8916   33.4800 H   0  0  0  0  0  0  0  0  0  0  0  0
   22.8329   45.5491   34.3892 C   0  0  0  0  0  0  0  0  0  0  0  0
   23.2905   45.8149   33.5760 H   0  0  0  0  0  0  0  0  0  0  0  0
   22.3793   46.3298   34.7449 H   0  0  0  0  0  0  0  0  0  0  0  0
   23.8356   45.0663   35.3835 C   0  0  0  0  0  0  0  0  0  0  0  0
   24.4892   44.5221   34.9179 H   0  0  0  0  0  0  0  0  0  0  0  0
   24.3029   45.8357   35.7439 H   0  0  0  0  0  0  0  0  0  0  0  0
   23.2862   44.2686   36.5272 C   0  0  0  0  0  0  0  0  0  0  0  0
   20.4494   43.3672   38.1928 C   0  0  0  0  0  0  0  0  0  0  0  0
   20.0376   44.1705   37.9669 H   0  0  0  0  0  0  0  0  0  0  0  0
   21.5366   42.9254   37.4702 C   0  0  0  0  0  0  0  0  0  0  0  0
   22.1243   41.7261   37.8012 C   0  0  0  0  0  0  0  0  0  0  0  0
   19.9701   42.6208   39.2499 C   0  0  0  0  0  0  0  0  0  0  0  0
   19.2271   42.9150   39.7258 H   0  0  0  0  0  0  0  0  0  0  0  0
   20.3130   42.3142   41.9755 H   0  0  0  0  0  0  0  0  0  0  0  0
   22.0662   43.7037   36.3867 N   0  0  0  0  0  0  0  0  0  0  0  0
   23.9409   44.1271   37.5563 O   0  0  0  0  0  0  0  0  0  0  0  0
   15.6924   39.0966   43.4089 C   0  0  0  0  0  0  0  0  0  0  0  0
   16.3866   38.4799   43.1255 H   0  0  0  0  0  0  0  0  0  0  0  0
   16.1233   39.9292   43.6573 H   0  0  0  0  0  0  0  0  0  0  0  0
   15.0248   38.5408   44.5924 C   0  0  0  0  0  0  0  0  0  0  0  0
   14.5853   39.2620   45.0716 H   0  0  0  0  0  0  0  0  0  0  0  0
   15.6948   38.1616   45.1817 H   0  0  0  0  0  0  0  0  0  0  0  0
   14.0283   37.5041   44.2726 C   0  0  0  0  0  0  0  0  0  0  0  0
   13.5707   37.2383   45.0858 H   0  0  0  0  0  0  0  0  0  0  0  0
   14.4819   36.7234   43.9169 H   0  0  0  0  0  0  0  0  0  0  0  0
   13.0256   37.9869   43.2783 C   0  0  0  0  0  0  0  0  0  0  0  0
   12.3720   38.5311   43.7438 H   0  0  0  0  0  0  0  0  0  0  0  0
   12.5583   37.2175   42.9178 H   0  0  0  0  0  0  0  0  0  0  0  0
   13.5751   38.7846   42.1345 C   0  0  0  0  0  0  0  0  0  0  0  0
   16.4118   39.6860   40.4690 C   0  0  0  0  0  0  0  0  0  0  0  0
   16.8237   38.8827   40.6949 H   0  0  0  0  0  0  0  0  0  0  0  0
   15.3246   40.1278   41.1915 C   0  0  0  0  0  0  0  0  0  0  0  0
   14.7369   41.3271   40.8605 C   0  0  0  0  0  0  0  0  0  0  0  0
   16.8911   40.4324   39.4119 C   0  0  0  0  0  0  0  0  0  0  0  0
   17.6342   40.1382   38.9360 H   0  0  0  0  0  0  0  0  0  0  0  0
   16.5482   40.7390   36.6863 H   0  0  0  0  0  0  0  0  0  0  0  0
   14.7950   39.3495   42.2750 N   0  0  0  0  0  0  0  0  0  0  0  0
   12.9203   38.9261   41.1055 O   0  0  0  0  0  0  0  0  0  0  0  0
   14.0217   41.6443   41.3635 H   0  0  0  0  0  0  0  0  0  0  0  0
   15.1993   42.0595   39.7929 C   0  0  0  0  0  0  0  0  0  0  0  0
   14.7850   42.8610   39.5669 H   0  0  0  0  0  0  0  0  0  0  0  0
   16.2710   41.6115   39.0596 C   0  0  0  0  0  0  0  0  0  0  0  0
   16.4823   41.7021   36.5901 C   0  0  0  0  0  0  0  0  0  0  0  0
   15.5854   41.9114   36.2867 H   0  0  0  0  0  0  0  0  0  0  0  0
   16.9445   43.6806   38.0130 C   0  0  0  0  0  0  0  0  0  0  0  0
   17.1563   44.3265   36.7078 C   0  0  0  0  0  0  0  0  0  0  0  0
   17.4862   43.6565   35.5644 C   0  0  0  0  0  0  0  0  0  0  0  0
   17.4813   42.1679   35.5482 C   0  0  0  0  0  0  0  0  0  0  0  0
   18.3660   41.8284   35.7565 H   0  0  0  0  0  0  0  0  0  0  0  0
   17.2257   41.8436   34.6710 H   0  0  0  0  0  0  0  0  0  0  0  0
   17.7689   44.6556   34.6321 C   0  0  0  0  0  0  0  0  0  0  0  0
   18.2399   44.4820   33.2399 C   0  0  0  0  0  0  0  0  0  0  0  0
   16.9397   46.7800   37.2759 C   0  0  0  0  0  0  0  0  0  0  0  0
   15.8407   46.7322   38.1036 C   0  0  0  0  0  0  0  0  0  0  0  0
   15.2864   45.9852   38.0975 H   0  0  0  0  0  0  0  0  0  0  0  0
   15.5615   47.7912   38.9406 C   0  0  0  0  0  0  0  0  0  0  0  0
   14.8211   47.7584   39.5008 H   0  0  0  0  0  0  0  0  0  0  0  0
   16.3779   48.8959   38.9456 C   0  0  0  0  0  0  0  0  0  0  0  0
   17.4573   48.9552   38.0816 C   0  0  0  0  0  0  0  0  0  0  0  0
   17.9916   49.7156   38.0628 H   0  0  0  0  0  0  0  0  0  0  0  0
   17.7446   47.9023   37.2531 C   0  0  0  0  0  0  0  0  0  0  0  0
   18.4762   47.9425   36.6800 H   0  0  0  0  0  0  0  0  0  0  0  0
   15.2064   49.8642   40.7619 C   0  0  0  0  0  0  0  0  0  0  0  0
   15.2238   50.6458   41.3194 H   0  0  0  0  0  0  0  0  0  0  0  0
   15.3639   49.0844   41.2990 H   0  0  0  0  0  0  0  0  0  0  0  0
   14.3469   49.7932   40.3393 H   0  0  0  0  0  0  0  0  0  0  0  0
   18.4658   45.5325   31.6456 H   0  0  0  0  0  0  0  0  0  0  0  0
   17.8268   46.2426   32.7500 H   0  0  0  0  0  0  0  0  0  0  0  0
   16.7108   42.3368   37.9013 N   0  0  0  0  0  0  0  0  0  0  0  0
   17.2458   45.6626   36.4407 N   0  0  0  0  0  0  0  0  0  0  0  0
   17.6068   45.8753   35.1579 N   0  0  0  0  0  0  0  0  0  0  0  0
   18.1998   45.5681   32.4738 N   0  0  0  0  0  0  0  0  0  0  0  0
   17.0577   44.2510   39.0787 O   0  0  0  0  0  0  0  0  0  0  0  0
   18.6629   43.3985   32.8751 O   0  0  0  0  0  0  0  0  0  0  0  0
   16.2137   49.9674   39.7709 O   0  0  0  0  0  0  0  0  0  0  0  0
   25.9132   39.0966   43.4089 C   0  0  0  0  0  0  0  0  0  0  0  0
   26.6074   38.4799   43.1255 H   0  0  0  0  0  0  0  0  0  0  0  0
   26.3441   39.9292   43.6573 H   0  0  0  0  0  0  0  0  0  0  0  0
   25.2456   38.5408   44.5924 C   0  0  0  0  0  0  0  0  0  0  0  0
   24.8061   39.2620   45.0716 H   0  0  0  0  0  0  0  0  0  0  0  0
   25.9156   38.1616   45.1817 H   0  0  0  0  0  0  0  0  0  0  0  0
   24.2491   37.5041   44.2726 C   0  0  0  0  0  0  0  0  0  0  0  0
   23.7915   37.2383   45.0858 H   0  0  0  0  0  0  0  0  0  0  0  0
   24.7027   36.7234   43.9169 H   0  0  0  0  0  0  0  0  0  0  0  0
   23.2464   37.9869   43.2783 C   0  0  0  0  0  0  0  0  0  0  0  0
   22.5928   38.5311   43.7438 H   0  0  0  0  0  0  0  0  0  0  0  0
   22.7791   37.2175   42.9178 H   0  0  0  0  0  0  0  0  0  0  0  0
   23.7959   38.7846   42.1345 C   0  0  0  0  0  0  0  0  0  0  0  0
   26.6326   39.6860   40.4690 C   0  0  0  0  0  0  0  0  0  0  0  0
   27.0445   38.8827   40.6949 H   0  0  0  0  0  0  0  0  0  0  0  0
   25.5454   40.1278   41.1915 C   0  0  0  0  0  0  0  0  0  0  0  0
   24.9577   41.3271   40.8605 C   0  0  0  0  0  0  0  0  0  0  0  0
   27.1119   40.4324   39.4119 C   0  0  0  0  0  0  0  0  0  0  0  0
   27.8550   40.1382   38.9360 H   0  0  0  0  0  0  0  0  0  0  0  0
   26.7690   40.7390   36.6863 H   0  0  0  0  0  0  0  0  0  0  0  0
   25.0158   39.3495   42.2750 N   0  0  0  0  0  0  0  0  0  0  0  0
   23.1411   38.9261   41.1055 O   0  0  0  0  0  0  0  0  0  0  0  0
   24.2425   41.6443   41.3635 H   0  0  0  0  0  0  0  0  0  0  0  0
   25.4201   42.0595   39.7929 C   0  0  0  0  0  0  0  0  0  0  0  0
   25.0058   42.8610   39.5669 H   0  0  0  0  0  0  0  0  0  0  0  0
   26.4918   41.6115   39.0596 C   0  0  0  0  0  0  0  0  0  0  0  0
   26.7031   41.7021   36.5901 C   0  0  0  0  0  0  0  0  0  0  0  0
   25.8062   41.9114   36.2867 H   0  0  0  0  0  0  0  0  0  0  0  0
   27.1653   43.6806   38.0130 C   0  0  0  0  0  0  0  0  0  0  0  0
   27.3771   44.3265   36.7078 C   0  0  0  0  0  0  0  0  0  0  0  0
   27.7070   43.6565   35.5644 C   0  0  0  0  0  0  0  0  0  0  0  0
   27.7021   42.1679   35.5482 C   0  0  0  0  0  0  0  0  0  0  0  0
   28.5868   41.8284   35.7565 H   0  0  0  0  0  0  0  0  0  0  0  0
   27.4465   41.8436   34.6710 H   0  0  0  0  0  0  0  0  0  0  0  0
   27.9897   44.6556   34.6321 C   0  0  0  0  0  0  0  0  0  0  0  0
   28.4607   44.4820   33.2399 C   0  0  0  0  0  0  0  0  0  0  0  0
   27.1605   46.7800   37.2759 C   0  0  0  0  0  0  0  0  0  0  0  0
   26.0615   46.7322   38.1036 C   0  0  0  0  0  0  0  0  0  0  0  0
   25.5072   45.9852   38.0975 H   0  0  0  0  0  0  0  0  0  0  0  0
   25.7823   47.7912   38.9406 C   0  0  0  0  0  0  0  0  0  0  0  0
   25.0419   47.7584   39.5008 H   0  0  0  0  0  0  0  0  0  0  0  0
   26.5987   48.8959   38.9456 C   0  0  0  0  0  0  0  0  0  0  0  0
   27.6781   48.9552   38.0816 C   0  0  0  0  0  0  0  0  0  0  0  0
   28.2124   49.7156   38.0628 H   0  0  0  0  0  0  0  0  0  0  0  0
   27.9654   47.9023   37.2531 C   0  0  0  0  0  0  0  0  0  0  0  0
   28.6970   47.9425   36.6800 H   0  0  0  0  0  0  0  0  0  0  0  0
   25.4272   49.8642   40.7619 C   0  0  0  0  0  0  0  0  0  0  0  0
   25.4446   50.6458   41.3194 H   0  0  0  0  0  0  0  0  0  0  0  0
   25.5847   49.0844   41.2990 H   0  0  0  0  0  0  0  0  0  0  0  0
   24.5677   49.7932   40.3393 H   0  0  0  0  0  0  0  0  0  0  0  0
   28.6866   45.5325   31.6456 H   0  0  0  0  0  0  0  0  0  0  0  0
   28.0476   46.2426   32.7500 H   0  0  0  0  0  0  0  0  0  0  0  0
   26.9316   42.3368   37.9013 N   0  0  0  0  0  0  0  0  0  0  0  0
   27.4666   45.6626   36.4407 N   0  0  0  0  0  0  0  0  0  0  0  0
   27.8276   45.8753   35.1579 N   0  0  0  0  0  0  0  0  0  0  0  0
   28.4206   45.5681   32.4738 N   0  0  0  0  0  0  0  0  0  0  0  0
   27.2785   44.2510   39.0787 O   0  0  0  0  0  0  0  0  0  0  0  0
   28.8837   43.3985   32.8751 O   0  0  0  0  0  0  0  0  0  0  0  0
   26.4345   49.9674   39.7709 O   0  0  0  0  0  0  0  0  0  0  0  0
   17.7338   38.1452   51.1445 C   0  0  0  0  0  0  0  0  0  0  0  0
   17.0802   37.6010   51.6100 H   0  0  0  0  0  0  0  0  0  0  0  0
   17.2665   38.9146   50.7840 H   0  0  0  0  0  0  0  0  0  0  0  0
   17.6285   37.2060   48.9717 O   0  0  0  0  0  0  0  0  0  0  0  0
   21.0861   27.2362   46.8118 C   0  0  0  0  0  0  0  0  0  0  0  0
   22.1655   27.1769   45.9477 C   0  0  0  0  0  0  0  0  0  0  0  0
   22.6998   26.4165   45.9290 H   0  0  0  0  0  0  0  0  0  0  0  0
   19.9146   26.2679   48.6281 C   0  0  0  0  0  0  0  0  0  0  0  0
   19.9320   25.4863   49.1856 H   0  0  0  0  0  0  0  0  0  0  0  0
   20.0721   27.0477   49.1652 H   0  0  0  0  0  0  0  0  0  0  0  0
   19.0551   26.3389   48.2055 H   0  0  0  0  0  0  0  0  0  0  0  0
   20.9219   26.1647   47.6371 O   0  0  0  0  0  0  0  0  0  0  0  0
   20.9792   34.5206   46.9258 C   0  0  0  0  0  0  0  0  0  0  0  0
   22.3424   35.9939   46.8022 H   0  0  0  0  0  0  0  0  0  0  0  0
   21.1905   34.4300   44.4563 C   0  0  0  0  0  0  0  0  0  0  0  0
   20.2936   34.2207   44.1528 H   0  0  0  0  0  0  0  0  0  0  0  0
   21.2564   35.3931   44.5524 H   0  0  0  0  0  0  0  0  0  0  0  0
   21.6527   32.4515   45.8791 C   0  0  0  0  0  0  0  0  0  0  0  0
   21.8645   31.8056   44.5740 C   0  0  0  0  0  0  0  0  0  0  0  0
   22.1944   32.4756   43.4306 C   0  0  0  0  0  0  0  0  0  0  0  0
   22.1895   33.9642   43.4144 C   0  0  0  0  0  0  0  0  0  0  0  0
   23.0742   34.3037   43.6227 H   0  0  0  0  0  0  0  0  0  0  0  0
   21.9339   34.2885   42.5371 H   0  0  0  0  0  0  0  0  0  0  0  0
   22.4771   31.4765   42.4983 C   0  0  0  0  0  0  0  0  0  0  0  0
   22.9481   31.6501   41.1061 C   0  0  0  0  0  0  0  0  0  0  0  0
   21.6479   29.3521   45.1421 C   0  0  0  0  0  0  0  0  0  0  0  0
   20.5489   29.3999   45.9698 C   0  0  0  0  0  0  0  0  0  0  0  0
   19.9946   30.1469   45.9636 H   0  0  0  0  0  0  0  0  0  0  0  0
   20.2697   28.3409   46.8067 C   0  0  0  0  0  0  0  0  0  0  0  0
   22.4528   28.2298   45.1193 C   0  0  0  0  0  0  0  0  0  0  0  0
   23.1844   28.1896   44.5461 H   0  0  0  0  0  0  0  0  0  0  0  0
   23.1740   30.5996   39.5118 H   0  0  0  0  0  0  0  0  0  0  0  0
   22.5350   29.8895   40.6162 H   0  0  0  0  0  0  0  0  0  0  0  0
   21.4190   33.7953   45.7674 N   0  0  0  0  0  0  0  0  0  0  0  0
   21.9540   30.4695   44.3069 N   0  0  0  0  0  0  0  0  0  0  0  0
   22.3150   30.2568   43.0240 N   0  0  0  0  0  0  0  0  0  0  0  0
   22.9080   30.5640   40.3399 N   0  0  0  0  0  0  0  0  0  0  0  0
   21.7659   31.8811   46.9449 O   0  0  0  0  0  0  0  0  0  0  0  0
   23.3711   32.7336   40.7413 O   0  0  0  0  0  0  0  0  0  0  0  0
   20.4006   37.0355   51.2750 C   0  0  0  0  0  0  0  0  0  0  0  0
   21.0948   37.6522   50.9917 H   0  0  0  0  0  0  0  0  0  0  0  0
   20.8315   36.2029   51.5234 H   0  0  0  0  0  0  0  0  0  0  0  0
   19.7330   37.5913   52.4586 C   0  0  0  0  0  0  0  0  0  0  0  0
   19.2935   36.8701   52.9378 H   0  0  0  0  0  0  0  0  0  0  0  0
   20.4030   37.9705   53.0479 H   0  0  0  0  0  0  0  0  0  0  0  0
   18.7365   38.6280   52.1387 C   0  0  0  0  0  0  0  0  0  0  0  0
   18.2789   38.8938   52.9519 H   0  0  0  0  0  0  0  0  0  0  0  0
   19.1901   39.4087   51.7830 H   0  0  0  0  0  0  0  0  0  0  0  0
   18.2833   37.3475   50.0007 C   0  0  0  0  0  0  0  0  0  0  0  0
   21.1200   36.4461   48.3351 C   0  0  0  0  0  0  0  0  0  0  0  0
   21.5319   37.2494   48.5610 H   0  0  0  0  0  0  0  0  0  0  0  0
   20.0328   36.0043   49.0577 C   0  0  0  0  0  0  0  0  0  0  0  0
   19.4451   34.8050   48.7267 C   0  0  0  0  0  0  0  0  0  0  0  0
   18.7299   34.4878   49.2297 H   0  0  0  0  0  0  0  0  0  0  0  0
   19.9075   34.0726   47.6591 C   0  0  0  0  0  0  0  0  0  0  0  0
   19.4932   33.2711   47.4330 H   0  0  0  0  0  0  0  0  0  0  0  0
   21.5993   35.6997   47.2781 C   0  0  0  0  0  0  0  0  0  0  0  0
   19.5293   28.3737   47.3670 H   0  0  0  0  0  0  0  0  0  0  0  0
   19.5032   36.7826   50.1412 N   0  0  0  0  0  0  0  0  0  0  0  0
   17.7338   51.9874   51.1445 C   0  0  0  0  0  0  0  0  0  0  0  0
   17.0802   51.4432   51.6100 H   0  0  0  0  0  0  0  0  0  0  0  0
   17.2665   52.7568   50.7840 H   0  0  0  0  0  0  0  0  0  0  0  0
   17.6285   51.0482   48.9717 O   0  0  0  0  0  0  0  0  0  0  0  0
   21.0861   41.0784   46.8118 C   0  0  0  0  0  0  0  0  0  0  0  0
   22.1655   41.0191   45.9477 C   0  0  0  0  0  0  0  0  0  0  0  0
   22.6998   40.2587   45.9290 H   0  0  0  0  0  0  0  0  0  0  0  0
   19.9146   40.1101   48.6281 C   0  0  0  0  0  0  0  0  0  0  0  0
   19.9320   39.3285   49.1856 H   0  0  0  0  0  0  0  0  0  0  0  0
   20.0721   40.8899   49.1652 H   0  0  0  0  0  0  0  0  0  0  0  0
   19.0551   40.1811   48.2055 H   0  0  0  0  0  0  0  0  0  0  0  0
   20.9219   40.0069   47.6371 O   0  0  0  0  0  0  0  0  0  0  0  0
   20.9792   48.3628   46.9258 C   0  0  0  0  0  0  0  0  0  0  0  0
   22.3424   49.8361   46.8022 H   0  0  0  0  0  0  0  0  0  0  0  0
   21.1905   48.2722   44.4563 C   0  0  0  0  0  0  0  0  0  0  0  0
   20.2936   48.0629   44.1528 H   0  0  0  0  0  0  0  0  0  0  0  0
   21.2564   49.2353   44.5524 H   0  0  0  0  0  0  0  0  0  0  0  0
   21.6527   46.2937   45.8791 C   0  0  0  0  0  0  0  0  0  0  0  0
   21.8645   45.6478   44.5740 C   0  0  0  0  0  0  0  0  0  0  0  0
   22.1944   46.3178   43.4306 C   0  0  0  0  0  0  0  0  0  0  0  0
   22.1895   47.8064   43.4144 C   0  0  0  0  0  0  0  0  0  0  0  0
   23.0742   48.1459   43.6227 H   0  0  0  0  0  0  0  0  0  0  0  0
   21.9339   48.1307   42.5371 H   0  0  0  0  0  0  0  0  0  0  0  0
   22.4771   45.3187   42.4983 C   0  0  0  0  0  0  0  0  0  0  0  0
   22.9481   45.4923   41.1061 C   0  0  0  0  0  0  0  0  0  0  0  0
   21.6479   43.1943   45.1421 C   0  0  0  0  0  0  0  0  0  0  0  0
   20.5489   43.2421   45.9698 C   0  0  0  0  0  0  0  0  0  0  0  0
   19.9946   43.9891   45.9636 H   0  0  0  0  0  0  0  0  0  0  0  0
   20.2697   42.1831   46.8067 C   0  0  0  0  0  0  0  0  0  0  0  0
   22.4528   42.0720   45.1193 C   0  0  0  0  0  0  0  0  0  0  0  0
   23.1844   42.0318   44.5461 H   0  0  0  0  0  0  0  0  0  0  0  0
   23.1740   44.4418   39.5118 H   0  0  0  0  0  0  0  0  0  0  0  0
   22.5350   43.7317   40.6162 H   0  0  0  0  0  0  0  0  0  0  0  0
   21.4190   47.6375   45.7674 N   0  0  0  0  0  0  0  0  0  0  0  0
   21.9540   44.3117   44.3069 N   0  0  0  0  0  0  0  0  0  0  0  0
   22.3150   44.0990   43.0240 N   0  0  0  0  0  0  0  0  0  0  0  0
   22.9080   44.4062   40.3399 N   0  0  0  0  0  0  0  0  0  0  0  0
   21.7659   45.7233   46.9449 O   0  0  0  0  0  0  0  0  0  0  0  0
   23.3711   46.5758   40.7413 O   0  0  0  0  0  0  0  0  0  0  0  0
   20.4006   50.8777   51.2750 C   0  0  0  0  0  0  0  0  0  0  0  0
   21.0948   51.4944   50.9917 H   0  0  0  0  0  0  0  0  0  0  0  0
   20.8315   50.0451   51.5234 H   0  0  0  0  0  0  0  0  0  0  0  0
   19.7330   51.4335   52.4586 C   0  0  0  0  0  0  0  0  0  0  0  0
   19.2935   50.7123   52.9378 H   0  0  0  0  0  0  0  0  0  0  0  0
   20.4030   51.8127   53.0479 H   0  0  0  0  0  0  0  0  0  0  0  0
   18.7365   52.4702   52.1387 C   0  0  0  0  0  0  0  0  0  0  0  0
   18.2789   52.7360   52.9519 H   0  0  0  0  0  0  0  0  0  0  0  0
   19.1901   53.2509   51.7830 H   0  0  0  0  0  0  0  0  0  0  0  0
   18.2833   51.1897   50.0007 C   0  0  0  0  0  0  0  0  0  0  0  0
   21.1200   50.2883   48.3351 C   0  0  0  0  0  0  0  0  0  0  0  0
   21.5319   51.0916   48.5610 H   0  0  0  0  0  0  0  0  0  0  0  0
   20.0328   49.8465   49.0577 C   0  0  0  0  0  0  0  0  0  0  0  0
   19.4451   48.6472   48.7267 C   0  0  0  0  0  0  0  0  0  0  0  0
   18.7299   48.3300   49.2297 H   0  0  0  0  0  0  0  0  0  0  0  0
   19.9075   47.9148   47.6591 C   0  0  0  0  0  0  0  0  0  0  0  0
   19.4932   47.1133   47.4330 H   0  0  0  0  0  0  0  0  0  0  0  0
   21.5993   49.5419   47.2781 C   0  0  0  0  0  0  0  0  0  0  0  0
   19.5293   42.2159   47.3670 H   0  0  0  0  0  0  0  0  0  0  0  0
   19.5032   50.6248   50.1412 N   0  0  0  0  0  0  0  0  0  0  0  0
   15.6562   32.1755   43.1191 C   0  0  0  0  0  0  0  0  0  0  0  0
   14.9620   31.5588   43.4024 H   0  0  0  0  0  0  0  0  0  0  0  0
   15.2253   33.0081   42.8707 H   0  0  0  0  0  0  0  0  0  0  0  0
   16.3238   31.6197   41.9355 C   0  0  0  0  0  0  0  0  0  0  0  0
   16.7633   32.3409   41.4563 H   0  0  0  0  0  0  0  0  0  0  0  0
   15.6538   31.2405   41.3462 H   0  0  0  0  0  0  0  0  0  0  0  0
   17.3203   30.5830   42.2554 C   0  0  0  0  0  0  0  0  0  0  0  0
   17.7779   30.3172   41.4422 H   0  0  0  0  0  0  0  0  0  0  0  0
   16.8667   29.8023   42.6111 H   0  0  0  0  0  0  0  0  0  0  0  0
   17.7736   31.8635   44.3934 C   0  0  0  0  0  0  0  0  0  0  0  0
   14.9368   32.7649   46.0590 C   0  0  0  0  0  0  0  0  0  0  0  0
   14.5250   31.9616   45.8331 H   0  0  0  0  0  0  0  0  0  0  0  0
   16.0240   33.2067   45.3364 C   0  0  0  0  0  0  0  0  0  0  0  0
   16.6117   34.4060   45.6674 C   0  0  0  0  0  0  0  0  0  0  0  0
   17.3269   34.7232   45.1644 H   0  0  0  0  0  0  0  0  0  0  0  0
   16.1493   35.1384   46.7350 C   0  0  0  0  0  0  0  0  0  0  0  0
   16.5636   35.9399   46.9611 H   0  0  0  0  0  0  0  0  0  0  0  0
   14.4575   33.5113   47.1160 C   0  0  0  0  0  0  0  0  0  0  0  0
   16.5275   40.8373   47.0271 H   0  0  0  0  0  0  0  0  0  0  0  0
   16.5536   32.4284   44.2529 N   0  0  0  0  0  0  0  0  0  0  0  0
   15.0776   34.6904   47.4683 C   0  0  0  0  0  0  0  0  0  0  0  0
   13.7145   33.2171   47.5919 H   0  0  0  0  0  0  0  0  0  0  0  0
   14.8663   34.7810   49.9378 C   0  0  0  0  0  0  0  0  0  0  0  0
   15.7632   34.9903   50.2413 H   0  0  0  0  0  0  0  0  0  0  0  0
   14.8004   33.8179   49.8417 H   0  0  0  0  0  0  0  0  0  0  0  0
   14.4041   36.7595   48.5149 C   0  0  0  0  0  0  0  0  0  0  0  0
   14.1923   37.4054   49.8201 C   0  0  0  0  0  0  0  0  0  0  0  0
   13.8624   36.7354   50.9635 C   0  0  0  0  0  0  0  0  0  0  0  0
   13.8673   35.2468   50.9797 C   0  0  0  0  0  0  0  0  0  0  0  0
   12.9826   34.9073   50.7714 H   0  0  0  0  0  0  0  0  0  0  0  0
   14.1229   34.9225   51.8570 H   0  0  0  0  0  0  0  0  0  0  0  0
   13.5797   37.7345   51.8958 C   0  0  0  0  0  0  0  0  0  0  0  0
   13.1087   37.5609   53.2880 C   0  0  0  0  0  0  0  0  0  0  0  0
   14.4089   39.8589   49.2520 C   0  0  0  0  0  0  0  0  0  0  0  0
   15.5079   39.8111   48.4243 C   0  0  0  0  0  0  0  0  0  0  0  0
   16.0622   39.0641   48.4305 H   0  0  0  0  0  0  0  0  0  0  0  0
   15.7871   40.8701   47.5874 C   0  0  0  0  0  0  0  0  0  0  0  0
   13.6040   40.9812   49.2748 C   0  0  0  0  0  0  0  0  0  0  0  0
   12.8724   41.0214   49.8479 H   0  0  0  0  0  0  0  0  0  0  0  0
   12.8828   38.6114   54.8823 H   0  0  0  0  0  0  0  0  0  0  0  0
   13.5218   39.3215   53.7779 H   0  0  0  0  0  0  0  0  0  0  0  0
   14.6378   35.4157   48.6266 N   0  0  0  0  0  0  0  0  0  0  0  0
   14.1028   38.7415   50.0872 N   0  0  0  0  0  0  0  0  0  0  0  0
   13.7418   38.9542   51.3701 N   0  0  0  0  0  0  0  0  0  0  0  0
   13.1488   38.6470   54.0541 N   0  0  0  0  0  0  0  0  0  0  0  0
   14.2909   37.3299   47.4492 O   0  0  0  0  0  0  0  0  0  0  0  0
   12.6857   36.4774   53.6528 O   0  0  0  0  0  0  0  0  0  0  0  0
   16.1422   42.9431   45.7660 C   0  0  0  0  0  0  0  0  0  0  0  0
   16.1248   43.7247   45.2085 H   0  0  0  0  0  0  0  0  0  0  0  0
   15.9847   42.1633   45.2289 H   0  0  0  0  0  0  0  0  0  0  0  0
   17.0017   42.8721   46.1886 H   0  0  0  0  0  0  0  0  0  0  0  0
   15.1349   43.0463   46.7570 O   0  0  0  0  0  0  0  0  0  0  0  0
   14.9707   41.9748   47.5823 C   0  0  0  0  0  0  0  0  0  0  0  0
   13.8913   42.0341   48.4464 C   0  0  0  0  0  0  0  0  0  0  0  0
   13.3571   42.7945   48.4651 H   0  0  0  0  0  0  0  0  0  0  0  0
   18.3230   31.0658   43.2496 C   0  0  0  0  0  0  0  0  0  0  0  0
   18.9766   31.6100   42.7841 H   0  0  0  0  0  0  0  0  0  0  0  0
   18.7903   30.2964   43.6101 H   0  0  0  0  0  0  0  0  0  0  0  0
   18.4283   32.0050   45.4224 O   0  0  0  0  0  0  0  0  0  0  0  0
   26.6814   32.1755   27.3867 C   0  0  0  0  0  0  0  0  0  0  0  0
   25.9872   31.5588   27.6701 H   0  0  0  0  0  0  0  0  0  0  0  0
   26.2505   33.0081   27.1383 H   0  0  0  0  0  0  0  0  0  0  0  0
   27.3490   31.6197   26.2032 C   0  0  0  0  0  0  0  0  0  0  0  0
   27.7885   32.3409   25.7240 H   0  0  0  0  0  0  0  0  0  0  0  0
   26.6790   31.2405   25.6138 H   0  0  0  0  0  0  0  0  0  0  0  0
   28.3455   30.5830   26.5230 C   0  0  0  0  0  0  0  0  0  0  0  0
   28.8031   30.3172   25.7098 H   0  0  0  0  0  0  0  0  0  0  0  0
   27.8919   29.8023   26.8787 H   0  0  0  0  0  0  0  0  0  0  0  0
   28.7988   31.8635   28.6610 C   0  0  0  0  0  0  0  0  0  0  0  0
   25.9620   32.7649   30.3266 C   0  0  0  0  0  0  0  0  0  0  0  0
   25.5502   31.9616   30.1007 H   0  0  0  0  0  0  0  0  0  0  0  0
   27.0492   33.2067   29.6040 C   0  0  0  0  0  0  0  0  0  0  0  0
   27.6369   34.4060   29.9350 C   0  0  0  0  0  0  0  0  0  0  0  0
   28.3521   34.7232   29.4321 H   0  0  0  0  0  0  0  0  0  0  0  0
   27.1745   35.1384   31.0026 C   0  0  0  0  0  0  0  0  0  0  0  0
   27.5888   35.9399   31.2287 H   0  0  0  0  0  0  0  0  0  0  0  0
   25.4827   33.5113   31.3837 C   0  0  0  0  0  0  0  0  0  0  0  0
   27.5527   40.8373   31.2948 H   0  0  0  0  0  0  0  0  0  0  0  0
   27.5788   32.4284   28.5205 N   0  0  0  0  0  0  0  0  0  0  0  0
   26.1028   34.6904   31.7359 C   0  0  0  0  0  0  0  0  0  0  0  0
   24.7397   33.2171   31.8596 H   0  0  0  0  0  0  0  0  0  0  0  0
   25.8915   34.7810   34.2054 C   0  0  0  0  0  0  0  0  0  0  0  0
   26.7884   34.9903   34.5089 H   0  0  0  0  0  0  0  0  0  0  0  0
   25.8256   33.8179   34.1093 H   0  0  0  0  0  0  0  0  0  0  0  0
   25.4293   36.7595   32.7826 C   0  0  0  0  0  0  0  0  0  0  0  0
   25.2175   37.4054   34.0878 C   0  0  0  0  0  0  0  0  0  0  0  0
   24.8876   36.7354   35.2312 C   0  0  0  0  0  0  0  0  0  0  0  0
   24.8925   35.2468   35.2474 C   0  0  0  0  0  0  0  0  0  0  0  0
   24.0078   34.9073   35.0391 H   0  0  0  0  0  0  0  0  0  0  0  0
   25.1481   34.9225   36.1246 H   0  0  0  0  0  0  0  0  0  0  0  0
   24.6049   37.7345   36.1635 C   0  0  0  0  0  0  0  0  0  0  0  0
   24.1339   37.5609   37.5556 C   0  0  0  0  0  0  0  0  0  0  0  0
   25.4341   39.8589   33.5197 C   0  0  0  0  0  0  0  0  0  0  0  0
   26.5331   39.8111   32.6920 C   0  0  0  0  0  0  0  0  0  0  0  0
   27.0874   39.0641   32.6981 H   0  0  0  0  0  0  0  0  0  0  0  0
   26.8123   40.8701   31.8550 C   0  0  0  0  0  0  0  0  0  0  0  0
   24.6292   40.9812   33.5425 C   0  0  0  0  0  0  0  0  0  0  0  0
   23.8976   41.0214   34.1156 H   0  0  0  0  0  0  0  0  0  0  0  0
   23.9080   38.6114   39.1500 H   0  0  0  0  0  0  0  0  0  0  0  0
   24.5470   39.3215   38.0455 H   0  0  0  0  0  0  0  0  0  0  0  0
   25.6630   35.4157   32.8943 N   0  0  0  0  0  0  0  0  0  0  0  0
   25.1280   38.7415   34.3549 N   0  0  0  0  0  0  0  0  0  0  0  0
   24.7670   38.9542   35.6377 N   0  0  0  0  0  0  0  0  0  0  0  0
   24.1740   38.6470   38.3218 N   0  0  0  0  0  0  0  0  0  0  0  0
   25.3161   37.3299   31.7169 O   0  0  0  0  0  0  0  0  0  0  0  0
   23.7109   36.4774   37.9205 O   0  0  0  0  0  0  0  0  0  0  0  0
   27.1674   42.9431   30.0337 C   0  0  0  0  0  0  0  0  0  0  0  0
   27.1500   43.7247   29.4761 H   0  0  0  0  0  0  0  0  0  0  0  0
   27.0099   42.1633   29.4966 H   0  0  0  0  0  0  0  0  0  0  0  0
   28.0269   42.8721   30.4563 H   0  0  0  0  0  0  0  0  0  0  0  0
   26.1601   43.0463   31.0247 O   0  0  0  0  0  0  0  0  0  0  0  0
   25.9959   41.9748   31.8500 C   0  0  0  0  0  0  0  0  0  0  0  0
   24.9165   42.0341   32.7140 C   0  0  0  0  0  0  0  0  0  0  0  0
   24.3823   42.7945   32.7327 H   0  0  0  0  0  0  0  0  0  0  0  0
   29.3482   31.0658   27.5173 C   0  0  0  0  0  0  0  0  0  0  0  0
   30.0018   31.6100   27.0518 H   0  0  0  0  0  0  0  0  0  0  0  0
   29.8155   30.2964   27.8777 H   0  0  0  0  0  0  0  0  0  0  0  0
   29.4535   32.0050   29.6901 O   0  0  0  0  0  0  0  0  0  0  0  0
   18.5382   38.1452   35.4121 C   0  0  0  0  0  0  0  0  0  0  0  0
   17.8846   37.6010   35.8776 H   0  0  0  0  0  0  0  0  0  0  0  0
   18.0709   38.9146   35.0517 H   0  0  0  0  0  0  0  0  0  0  0  0
   18.4329   37.2060   33.2393 O   0  0  0  0  0  0  0  0  0  0  0  0
   21.8905   27.2362   31.0794 C   0  0  0  0  0  0  0  0  0  0  0  0
   22.9699   27.1769   30.2154 C   0  0  0  0  0  0  0  0  0  0  0  0
   23.5042   26.4165   30.1967 H   0  0  0  0  0  0  0  0  0  0  0  0
   20.7190   26.2679   32.8957 C   0  0  0  0  0  0  0  0  0  0  0  0
   20.7364   25.4863   33.4533 H   0  0  0  0  0  0  0  0  0  0  0  0
   20.8765   27.0477   33.4328 H   0  0  0  0  0  0  0  0  0  0  0  0
   19.8595   26.3389   32.4731 H   0  0  0  0  0  0  0  0  0  0  0  0
   21.7263   26.1647   31.9047 O   0  0  0  0  0  0  0  0  0  0  0  0
   21.7836   34.5206   31.1935 C   0  0  0  0  0  0  0  0  0  0  0  0
   23.1467   35.9939   31.0698 H   0  0  0  0  0  0  0  0  0  0  0  0
   21.9949   34.4300   28.7240 C   0  0  0  0  0  0  0  0  0  0  0  0
   21.0980   34.2207   28.4205 H   0  0  0  0  0  0  0  0  0  0  0  0
   22.0608   35.3931   28.8201 H   0  0  0  0  0  0  0  0  0  0  0  0
   22.4571   32.4515   30.1468 C   0  0  0  0  0  0  0  0  0  0  0  0
   22.6689   31.8056   28.8416 C   0  0  0  0  0  0  0  0  0  0  0  0
   22.9988   32.4756   27.6982 C   0  0  0  0  0  0  0  0  0  0  0  0
   22.9939   33.9642   27.6820 C   0  0  0  0  0  0  0  0  0  0  0  0
   23.8786   34.3037   27.8903 H   0  0  0  0  0  0  0  0  0  0  0  0
   22.7383   34.2885   26.8048 H   0  0  0  0  0  0  0  0  0  0  0  0
   23.2815   31.4765   26.7659 C   0  0  0  0  0  0  0  0  0  0  0  0
   23.7525   31.6501   25.3738 C   0  0  0  0  0  0  0  0  0  0  0  0
   22.4523   29.3521   29.4097 C   0  0  0  0  0  0  0  0  0  0  0  0
   21.3533   29.3999   30.2374 C   0  0  0  0  0  0  0  0  0  0  0  0
   20.7990   30.1469   30.2313 H   0  0  0  0  0  0  0  0  0  0  0  0
   21.0741   28.3409   31.0744 C   0  0  0  0  0  0  0  0  0  0  0  0
   23.2572   28.2298   29.3869 C   0  0  0  0  0  0  0  0  0  0  0  0
   23.9888   28.1896   28.8138 H   0  0  0  0  0  0  0  0  0  0  0  0
   23.9784   30.5996   23.7794 H   0  0  0  0  0  0  0  0  0  0  0  0
   23.3394   29.8895   24.8839 H   0  0  0  0  0  0  0  0  0  0  0  0
   22.2234   33.7953   30.0351 N   0  0  0  0  0  0  0  0  0  0  0  0
   22.7584   30.4695   28.5745 N   0  0  0  0  0  0  0  0  0  0  0  0
   23.1194   30.2568   27.2917 N   0  0  0  0  0  0  0  0  0  0  0  0
   23.7124   30.5640   24.6076 N   0  0  0  0  0  0  0  0  0  0  0  0
   22.5703   31.8811   31.2125 O   0  0  0  0  0  0  0  0  0  0  0  0
   24.1755   32.7336   25.0089 O   0  0  0  0  0  0  0  0  0  0  0  0
   21.2050   37.0355   35.5427 C   0  0  0  0  0  0  0  0  0  0  0  0
   21.8992   37.6522   35.2593 H   0  0  0  0  0  0  0  0  0  0  0  0
   21.6359   36.2029   35.7911 H   0  0  0  0  0  0  0  0  0  0  0  0
   20.5374   37.5913   36.7262 C   0  0  0  0  0  0  0  0  0  0  0  0
   20.0979   36.8701   37.2054 H   0  0  0  0  0  0  0  0  0  0  0  0
   21.2074   37.9705   37.3156 H   0  0  0  0  0  0  0  0  0  0  0  0
   19.5409   38.6280   36.4064 C   0  0  0  0  0  0  0  0  0  0  0  0
   19.0833   38.8938   37.2196 H   0  0  0  0  0  0  0  0  0  0  0  0
   19.9945   39.4087   36.0507 H   0  0  0  0  0  0  0  0  0  0  0  0
   19.0877   37.3475   34.2684 C   0  0  0  0  0  0  0  0  0  0  0  0
   21.9244   36.4461   32.6028 C   0  0  0  0  0  0  0  0  0  0  0  0
   22.3363   37.2494   32.8287 H   0  0  0  0  0  0  0  0  0  0  0  0
   20.8372   36.0043   33.3254 C   0  0  0  0  0  0  0  0  0  0  0  0
   20.2495   34.8050   32.9944 C   0  0  0  0  0  0  0  0  0  0  0  0
   19.5343   34.4878   33.4973 H   0  0  0  0  0  0  0  0  0  0  0  0
   20.7119   34.0726   31.9268 C   0  0  0  0  0  0  0  0  0  0  0  0
   20.2976   33.2711   31.7007 H   0  0  0  0  0  0  0  0  0  0  0  0
   22.4037   35.6997   31.5457 C   0  0  0  0  0  0  0  0  0  0  0  0
   20.3337   28.3737   31.6346 H   0  0  0  0  0  0  0  0  0  0  0  0
   20.3076   36.7826   34.4088 N   0  0  0  0  0  0  0  0  0  0  0  0
   18.5382   51.9874   35.4121 C   0  0  0  0  0  0  0  0  0  0  0  0
   17.8846   51.4432   35.8776 H   0  0  0  0  0  0  0  0  0  0  0  0
   18.0709   52.7568   35.0517 H   0  0  0  0  0  0  0  0  0  0  0  0
   18.4329   51.0482   33.2393 O   0  0  0  0  0  0  0  0  0  0  0  0
   21.8905   41.0784   31.0794 C   0  0  0  0  0  0  0  0  0  0  0  0
   22.9699   41.0191   30.2154 C   0  0  0  0  0  0  0  0  0  0  0  0
   23.5042   40.2587   30.1967 H   0  0  0  0  0  0  0  0  0  0  0  0
   20.7190   40.1101   32.8957 C   0  0  0  0  0  0  0  0  0  0  0  0
   20.7364   39.3285   33.4533 H   0  0  0  0  0  0  0  0  0  0  0  0
   20.8765   40.8899   33.4328 H   0  0  0  0  0  0  0  0  0  0  0  0
   19.8595   40.1811   32.4731 H   0  0  0  0  0  0  0  0  0  0  0  0
   21.7263   40.0069   31.9047 O   0  0  0  0  0  0  0  0  0  0  0  0
   21.7836   48.3628   31.1935 C   0  0  0  0  0  0  0  0  0  0  0  0
   23.1467   49.8361   31.0698 H   0  0  0  0  0  0  0  0  0  0  0  0
   21.9949   48.2722   28.7240 C   0  0  0  0  0  0  0  0  0  0  0  0
   21.0980   48.0629   28.4205 H   0  0  0  0  0  0  0  0  0  0  0  0
   22.0608   49.2353   28.8201 H   0  0  0  0  0  0  0  0  0  0  0  0
   22.4571   46.2937   30.1468 C   0  0  0  0  0  0  0  0  0  0  0  0
   22.6689   45.6478   28.8416 C   0  0  0  0  0  0  0  0  0  0  0  0
   22.9988   46.3178   27.6982 C   0  0  0  0  0  0  0  0  0  0  0  0
   22.9939   47.8064   27.6820 C   0  0  0  0  0  0  0  0  0  0  0  0
   23.8786   48.1459   27.8903 H   0  0  0  0  0  0  0  0  0  0  0  0
   22.7383   48.1307   26.8048 H   0  0  0  0  0  0  0  0  0  0  0  0
   23.2815   45.3187   26.7659 C   0  0  0  0  0  0  0  0  0  0  0  0
   23.7525   45.4923   25.3738 C   0  0  0  0  0  0  0  0  0  0  0  0
   22.4523   43.1943   29.4097 C   0  0  0  0  0  0  0  0  0  0  0  0
   21.3533   43.2421   30.2374 C   0  0  0  0  0  0  0  0  0  0  0  0
   20.7990   43.9891   30.2313 H   0  0  0  0  0  0  0  0  0  0  0  0
   21.0741   42.1831   31.0744 C   0  0  0  0  0  0  0  0  0  0  0  0
   23.2572   42.0720   29.3869 C   0  0  0  0  0  0  0  0  0  0  0  0
   23.9888   42.0318   28.8138 H   0  0  0  0  0  0  0  0  0  0  0  0
   23.9784   44.4418   23.7794 H   0  0  0  0  0  0  0  0  0  0  0  0
   23.3394   43.7317   24.8839 H   0  0  0  0  0  0  0  0  0  0  0  0
   22.2234   47.6375   30.0351 N   0  0  0  0  0  0  0  0  0  0  0  0
   22.7584   44.3117   28.5745 N   0  0  0  0  0  0  0  0  0  0  0  0
   23.1194   44.0990   27.2917 N   0  0  0  0  0  0  0  0  0  0  0  0
   23.7124   44.4062   24.6076 N   0  0  0  0  0  0  0  0  0  0  0  0
   22.5703   45.7233   31.2125 O   0  0  0  0  0  0  0  0  0  0  0  0
   24.1755   46.5758   25.0089 O   0  0  0  0  0  0  0  0  0  0  0  0
   21.2050   50.8777   35.5427 C   0  0  0  0  0  0  0  0  0  0  0  0
   21.8992   51.4944   35.2593 H   0  0  0  0  0  0  0  0  0  0  0  0
   21.6359   50.0451   35.7911 H   0  0  0  0  0  0  0  0  0  0  0  0
   20.5374   51.4335   36.7262 C   0  0  0  0  0  0  0  0  0  0  0  0
   20.0979   50.7123   37.2054 H   0  0  0  0  0  0  0  0  0  0  0  0
   21.2074   51.8127   37.3156 H   0  0  0  0  0  0  0  0  0  0  0  0
   19.5409   52.4702   36.4064 C   0  0  0  0  0  0  0  0  0  0  0  0
   19.0833   52.7360   37.2196 H   0  0  0  0  0  0  0  0  0  0  0  0
   19.9945   53.2509   36.0507 H   0  0  0  0  0  0  0  0  0  0  0  0
   19.0877   51.1897   34.2684 C   0  0  0  0  0  0  0  0  0  0  0  0
   21.9244   50.2883   32.6028 C   0  0  0  0  0  0  0  0  0  0  0  0
   22.3363   51.0916   32.8287 H   0  0  0  0  0  0  0  0  0  0  0  0
   20.8372   49.8465   33.3254 C   0  0  0  0  0  0  0  0  0  0  0  0
   20.2495   48.6472   32.9944 C   0  0  0  0  0  0  0  0  0  0  0  0
   19.5343   48.3300   33.4973 H   0  0  0  0  0  0  0  0  0  0  0  0
   20.7119   47.9148   31.9268 C   0  0  0  0  0  0  0  0  0  0  0  0
   20.2976   47.1133   31.7007 H   0  0  0  0  0  0  0  0  0  0  0  0
   22.4037   49.5419   31.5457 C   0  0  0  0  0  0  0  0  0  0  0  0
   20.3337   42.2159   31.6346 H   0  0  0  0  0  0  0  0  0  0  0  0
   20.3076   50.6248   34.4088 N   0  0  0  0  0  0  0  0  0  0  0  0
   15.6924   25.2544   43.4089 C   0  0  0  0  0  0  0  0  0  0  0  0
   16.3866   24.6377   43.1255 H   0  0  0  0  0  0  0  0  0  0  0  0
   16.1233   26.0870   43.6573 H   0  0  0  0  0  0  0  0  0  0  0  0
   15.0248   24.6986   44.5924 C   0  0  0  0  0  0  0  0  0  0  0  0
   14.5853   25.4198   45.0716 H   0  0  0  0  0  0  0  0  0  0  0  0
   15.6948   24.3194   45.1817 H   0  0  0  0  0  0  0  0  0  0  0  0
   14.0283   23.6619   44.2726 C   0  0  0  0  0  0  0  0  0  0  0  0
   13.5707   23.3961   45.0858 H   0  0  0  0  0  0  0  0  0  0  0  0
   14.4819   22.8812   43.9169 H   0  0  0  0  0  0  0  0  0  0  0  0
   13.0256   24.1447   43.2783 C   0  0  0  0  0  0  0  0  0  0  0  0
   12.3720   24.6889   43.7438 H   0  0  0  0  0  0  0  0  0  0  0  0
   12.5583   23.3753   42.9178 H   0  0  0  0  0  0  0  0  0  0  0  0
   13.5751   24.9424   42.1345 C   0  0  0  0  0  0  0  0  0  0  0  0
   16.4118   25.8438   40.4690 C   0  0  0  0  0  0  0  0  0  0  0  0
   16.8237   25.0405   40.6949 H   0  0  0  0  0  0  0  0  0  0  0  0
   15.3246   26.2856   41.1915 C   0  0  0  0  0  0  0  0  0  0  0  0
   14.7369   27.4849   40.8605 C   0  0  0  0  0  0  0  0  0  0  0  0
   16.8911   26.5902   39.4119 C   0  0  0  0  0  0  0  0  0  0  0  0
   17.6342   26.2960   38.9360 H   0  0  0  0  0  0  0  0  0  0  0  0
   16.5482   26.8968   36.6863 H   0  0  0  0  0  0  0  0  0  0  0  0
   14.7950   25.5073   42.2750 N   0  0  0  0  0  0  0  0  0  0  0  0
   12.9203   25.0839   41.1055 O   0  0  0  0  0  0  0  0  0  0  0  0
   14.0217   27.8021   41.3635 H   0  0  0  0  0  0  0  0  0  0  0  0
   15.1993   28.2173   39.7929 C   0  0  0  0  0  0  0  0  0  0  0  0
   14.7850   29.0188   39.5669 H   0  0  0  0  0  0  0  0  0  0  0  0
   16.2710   27.7693   39.0596 C   0  0  0  0  0  0  0  0  0  0  0  0
   16.4823   27.8599   36.5901 C   0  0  0  0  0  0  0  0  0  0  0  0
   15.5854   28.0692   36.2867 H   0  0  0  0  0  0  0  0  0  0  0  0
   16.9445   29.8384   38.0130 C   0  0  0  0  0  0  0  0  0  0  0  0
   17.1563   30.4843   36.7078 C   0  0  0  0  0  0  0  0  0  0  0  0
   17.4862   29.8143   35.5644 C   0  0  0  0  0  0  0  0  0  0  0  0
   17.4813   28.3257   35.5482 C   0  0  0  0  0  0  0  0  0  0  0  0
   18.3660   27.9862   35.7565 H   0  0  0  0  0  0  0  0  0  0  0  0
   17.2257   28.0014   34.6710 H   0  0  0  0  0  0  0  0  0  0  0  0
   17.7689   30.8134   34.6321 C   0  0  0  0  0  0  0  0  0  0  0  0
   18.2399   30.6398   33.2399 C   0  0  0  0  0  0  0  0  0  0  0  0
   16.9397   32.9378   37.2759 C   0  0  0  0  0  0  0  0  0  0  0  0
   15.8407   32.8900   38.1036 C   0  0  0  0  0  0  0  0  0  0  0  0
   15.2864   32.1430   38.0975 H   0  0  0  0  0  0  0  0  0  0  0  0
   15.5615   33.9490   38.9406 C   0  0  0  0  0  0  0  0  0  0  0  0
   14.8211   33.9162   39.5008 H   0  0  0  0  0  0  0  0  0  0  0  0
   16.3779   35.0537   38.9456 C   0  0  0  0  0  0  0  0  0  0  0  0
   17.4573   35.1130   38.0816 C   0  0  0  0  0  0  0  0  0  0  0  0
   17.9916   35.8734   38.0628 H   0  0  0  0  0  0  0  0  0  0  0  0
   17.7446   34.0601   37.2531 C   0  0  0  0  0  0  0  0  0  0  0  0
   18.4762   34.1003   36.6800 H   0  0  0  0  0  0  0  0  0  0  0  0
   15.2064   36.0220   40.7619 C   0  0  0  0  0  0  0  0  0  0  0  0
   15.2238   36.8036   41.3194 H   0  0  0  0  0  0  0  0  0  0  0  0
   15.3639   35.2422   41.2990 H   0  0  0  0  0  0  0  0  0  0  0  0
   14.3469   35.9510   40.3393 H   0  0  0  0  0  0  0  0  0  0  0  0
   18.4658   31.6903   31.6456 H   0  0  0  0  0  0  0  0  0  0  0  0
   17.8268   32.4004   32.7500 H   0  0  0  0  0  0  0  0  0  0  0  0
   16.7108   28.4946   37.9013 N   0  0  0  0  0  0  0  0  0  0  0  0
   17.2458   31.8204   36.4407 N   0  0  0  0  0  0  0  0  0  0  0  0
   17.6068   32.0331   35.1579 N   0  0  0  0  0  0  0  0  0  0  0  0
   18.1998   31.7259   32.4738 N   0  0  0  0  0  0  0  0  0  0  0  0
   17.0577   30.4088   39.0787 O   0  0  0  0  0  0  0  0  0  0  0  0
   18.6629   29.5563   32.8751 O   0  0  0  0  0  0  0  0  0  0  0  0
   16.2137   36.1252   39.7709 O   0  0  0  0  0  0  0  0  0  0  0  0
   22.8395   27.5667   37.2983 H   0  0  0  0  0  0  0  0  0  0  0  0
   21.6619   27.1515   38.8688 C   0  0  0  0  0  0  0  0  0  0  0  0
   22.0762   26.3500   39.0949 H   0  0  0  0  0  0  0  0  0  0  0  0
   20.5902   27.5995   39.6021 C   0  0  0  0  0  0  0  0  0  0  0  0
   20.3789   27.5089   42.0716 C   0  0  0  0  0  0  0  0  0  0  0  0
   21.2758   27.2996   42.3751 H   0  0  0  0  0  0  0  0  0  0  0  0
   19.9167   25.5304   40.6488 C   0  0  0  0  0  0  0  0  0  0  0  0
   19.7049   24.8845   41.9539 C   0  0  0  0  0  0  0  0  0  0  0  0
   19.3750   25.5545   43.0974 C   0  0  0  0  0  0  0  0  0  0  0  0
   19.3799   27.0431   43.1136 C   0  0  0  0  0  0  0  0  0  0  0  0
   18.4952   27.3826   42.9053 H   0  0  0  0  0  0  0  0  0  0  0  0
   19.6355   27.3674   43.9908 H   0  0  0  0  0  0  0  0  0  0  0  0
   19.0923   24.5554   44.0297 C   0  0  0  0  0  0  0  0  0  0  0  0
   18.6213   24.7290   45.4218 C   0  0  0  0  0  0  0  0  0  0  0  0
   19.9215   22.4310   41.3858 C   0  0  0  0  0  0  0  0  0  0  0  0
   21.0205   22.4788   40.5582 C   0  0  0  0  0  0  0  0  0  0  0  0
   21.5748   23.2258   40.5643 H   0  0  0  0  0  0  0  0  0  0  0  0
   21.2997   21.4198   39.7212 C   0  0  0  0  0  0  0  0  0  0  0  0
   22.0401   21.4526   39.1610 H   0  0  0  0  0  0  0  0  0  0  0  0
   20.4833   20.3151   39.7162 C   0  0  0  0  0  0  0  0  0  0  0  0
   19.4039   20.2558   40.5802 C   0  0  0  0  0  0  0  0  0  0  0  0
   18.8697   19.4954   40.5989 H   0  0  0  0  0  0  0  0  0  0  0  0
   19.1166   21.3087   41.4086 C   0  0  0  0  0  0  0  0  0  0  0  0
   18.3850   21.2685   41.9818 H   0  0  0  0  0  0  0  0  0  0  0  0
   21.6548   19.3468   37.8999 C   0  0  0  0  0  0  0  0  0  0  0  0
   21.6374   18.5652   37.3423 H   0  0  0  0  0  0  0  0  0  0  0  0
   21.4973   20.1266   37.3628 H   0  0  0  0  0  0  0  0  0  0  0  0
   22.5143   19.4178   38.3224 H   0  0  0  0  0  0  0  0  0  0  0  0
   18.3954   23.6785   47.0161 H   0  0  0  0  0  0  0  0  0  0  0  0
   19.0344   22.9684   45.9117 H   0  0  0  0  0  0  0  0  0  0  0  0
   20.1504   26.8742   40.7605 N   0  0  0  0  0  0  0  0  0  0  0  0
   19.6154   23.5484   42.2211 N   0  0  0  0  0  0  0  0  0  0  0  0
   19.2544   23.3357   43.5039 N   0  0  0  0  0  0  0  0  0  0  0  0
   18.6614   23.6429   46.1880 N   0  0  0  0  0  0  0  0  0  0  0  0
   19.8035   24.9600   39.5831 O   0  0  0  0  0  0  0  0  0  0  0  0
   18.1983   25.8125   45.7866 O   0  0  0  0  0  0  0  0  0  0  0  0
   20.6475   19.2436   38.8908 O   0  0  0  0  0  0  0  0  0  0  0  0
   21.1688   30.1144   35.2529 C   0  0  0  0  0  0  0  0  0  0  0  0
   20.4746   30.7311   35.5362 H   0  0  0  0  0  0  0  0  0  0  0  0
   20.7379   29.2818   35.0045 H   0  0  0  0  0  0  0  0  0  0  0  0
   21.8364   30.6702   34.0693 C   0  0  0  0  0  0  0  0  0  0  0  0
   22.2759   29.9490   33.5901 H   0  0  0  0  0  0  0  0  0  0  0  0
   21.1664   31.0494   33.4800 H   0  0  0  0  0  0  0  0  0  0  0  0
   22.8329   31.7069   34.3892 C   0  0  0  0  0  0  0  0  0  0  0  0
   23.2905   31.9727   33.5760 H   0  0  0  0  0  0  0  0  0  0  0  0
   22.3793   32.4876   34.7449 H   0  0  0  0  0  0  0  0  0  0  0  0
   23.8356   31.2241   35.3835 C   0  0  0  0  0  0  0  0  0  0  0  0
   24.4892   30.6799   34.9179 H   0  0  0  0  0  0  0  0  0  0  0  0
   24.3029   31.9935   35.7439 H   0  0  0  0  0  0  0  0  0  0  0  0
   23.2862   30.4264   36.5272 C   0  0  0  0  0  0  0  0  0  0  0  0
   20.4494   29.5250   38.1928 C   0  0  0  0  0  0  0  0  0  0  0  0
   20.0376   30.3283   37.9669 H   0  0  0  0  0  0  0  0  0  0  0  0
   21.5366   29.0832   37.4702 C   0  0  0  0  0  0  0  0  0  0  0  0
   22.1243   27.8839   37.8012 C   0  0  0  0  0  0  0  0  0  0  0  0
   19.9701   28.7786   39.2499 C   0  0  0  0  0  0  0  0  0  0  0  0
   19.2271   29.0728   39.7258 H   0  0  0  0  0  0  0  0  0  0  0  0
   20.3130   28.4720   41.9755 H   0  0  0  0  0  0  0  0  0  0  0  0
   22.0662   29.8615   36.3867 N   0  0  0  0  0  0  0  0  0  0  0  0
   23.9409   30.2849   37.5563 O   0  0  0  0  0  0  0  0  0  0  0  0
   22.8395   55.2511   37.2983 H   0  0  0  0  0  0  0  0  0  0  0  0
   21.6619   54.8359   38.8688 C   0  0  0  0  0  0  0  0  0  0  0  0
   22.0762   54.0344   39.0949 H   0  0  0  0  0  0  0  0  0  0  0  0
   20.5902   55.2839   39.6021 C   0  0  0  0  0  0  0  0  0  0  0  0
   20.3789   55.1933   42.0716 C   0  0  0  0  0  0  0  0  0  0  0  0
   21.2758   54.9840   42.3751 H   0  0  0  0  0  0  0  0  0  0  0  0
   19.9167   53.2148   40.6488 C   0  0  0  0  0  0  0  0  0  0  0  0
   19.7049   52.5689   41.9539 C   0  0  0  0  0  0  0  0  0  0  0  0
   19.3750   53.2389   43.0974 C   0  0  0  0  0  0  0  0  0  0  0  0
   19.3799   54.7275   43.1136 C   0  0  0  0  0  0  0  0  0  0  0  0
   18.4952   55.0670   42.9053 H   0  0  0  0  0  0  0  0  0  0  0  0
   19.6355   55.0518   43.9908 H   0  0  0  0  0  0  0  0  0  0  0  0
   19.0923   52.2398   44.0297 C   0  0  0  0  0  0  0  0  0  0  0  0
   18.6213   52.4134   45.4218 C   0  0  0  0  0  0  0  0  0  0  0  0
   19.9215   50.1154   41.3858 C   0  0  0  0  0  0  0  0  0  0  0  0
   21.0205   50.1632   40.5582 C   0  0  0  0  0  0  0  0  0  0  0  0
   21.5748   50.9102   40.5643 H   0  0  0  0  0  0  0  0  0  0  0  0
   21.2997   49.1042   39.7212 C   0  0  0  0  0  0  0  0  0  0  0  0
   22.0401   49.1370   39.1610 H   0  0  0  0  0  0  0  0  0  0  0  0
   20.4833   47.9995   39.7162 C   0  0  0  0  0  0  0  0  0  0  0  0
   19.4039   47.9402   40.5802 C   0  0  0  0  0  0  0  0  0  0  0  0
   18.8697   47.1798   40.5989 H   0  0  0  0  0  0  0  0  0  0  0  0
   19.1166   48.9931   41.4086 C   0  0  0  0  0  0  0  0  0  0  0  0
   18.3850   48.9529   41.9818 H   0  0  0  0  0  0  0  0  0  0  0  0
   21.6548   47.0312   37.8999 C   0  0  0  0  0  0  0  0  0  0  0  0
   21.6374   46.2496   37.3423 H   0  0  0  0  0  0  0  0  0  0  0  0
   21.4973   47.8110   37.3628 H   0  0  0  0  0  0  0  0  0  0  0  0
   22.5143   47.1022   38.3224 H   0  0  0  0  0  0  0  0  0  0  0  0
   18.3954   51.3629   47.0161 H   0  0  0  0  0  0  0  0  0  0  0  0
   19.0344   50.6528   45.9117 H   0  0  0  0  0  0  0  0  0  0  0  0
   20.1504   54.5586   40.7605 N   0  0  0  0  0  0  0  0  0  0  0  0
   19.6154   51.2328   42.2211 N   0  0  0  0  0  0  0  0  0  0  0  0
   19.2544   51.0201   43.5039 N   0  0  0  0  0  0  0  0  0  0  0  0
   18.6614   51.3273   46.1880 N   0  0  0  0  0  0  0  0  0  0  0  0
   19.8035   52.6444   39.5831 O   0  0  0  0  0  0  0  0  0  0  0  0
   18.1983   53.4969   45.7866 O   0  0  0  0  0  0  0  0  0  0  0  0
   20.6475   46.9280   38.8908 O   0  0  0  0  0  0  0  0  0  0  0  0
   21.1688   57.7988   35.2529 C   0  0  0  0  0  0  0  0  0  0  0  0
   20.4746   58.4155   35.5362 H   0  0  0  0  0  0  0  0  0  0  0  0
   20.7379   56.9662   35.0045 H   0  0  0  0  0  0  0  0  0  0  0  0
   21.8364   58.3546   34.0693 C   0  0  0  0  0  0  0  0  0  0  0  0
   22.2759   57.6334   33.5901 H   0  0  0  0  0  0  0  0  0  0  0  0
   21.1664   58.7338   33.4800 H   0  0  0  0  0  0  0  0  0  0  0  0
   22.8329   59.3913   34.3892 C   0  0  0  0  0  0  0  0  0  0  0  0
   23.2905   59.6571   33.5760 H   0  0  0  0  0  0  0  0  0  0  0  0
   22.3793   60.1720   34.7449 H   0  0  0  0  0  0  0  0  0  0  0  0
   23.8356   58.9085   35.3835 C   0  0  0  0  0  0  0  0  0  0  0  0
   24.4892   58.3643   34.9179 H   0  0  0  0  0  0  0  0  0  0  0  0
   24.3029   59.6779   35.7439 H   0  0  0  0  0  0  0  0  0  0  0  0
   23.2862   58.1108   36.5272 C   0  0  0  0  0  0  0  0  0  0  0  0
   20.4494   57.2094   38.1928 C   0  0  0  0  0  0  0  0  0  0  0  0
   20.0376   58.0127   37.9669 H   0  0  0  0  0  0  0  0  0  0  0  0
   21.5366   56.7676   37.4702 C   0  0  0  0  0  0  0  0  0  0  0  0
   22.1243   55.5683   37.8012 C   0  0  0  0  0  0  0  0  0  0  0  0
   19.9701   56.4630   39.2499 C   0  0  0  0  0  0  0  0  0  0  0  0
   19.2271   56.7572   39.7258 H   0  0  0  0  0  0  0  0  0  0  0  0
   20.3130   56.1564   41.9755 H   0  0  0  0  0  0  0  0  0  0  0  0
   22.0662   57.5459   36.3867 N   0  0  0  0  0  0  0  0  0  0  0  0
   23.9409   57.9693   37.5563 O   0  0  0  0  0  0  0  0  0  0  0  0
   15.6562   46.0177   43.1191 C   0  0  0  0  0  0  0  0  0  0  0  0
   14.9620   45.4010   43.4024 H   0  0  0  0  0  0  0  0  0  0  0  0
   15.2253   46.8503   42.8707 H   0  0  0  0  0  0  0  0  0  0  0  0
   16.3238   45.4619   41.9355 C   0  0  0  0  0  0  0  0  0  0  0  0
   16.7633   46.1831   41.4563 H   0  0  0  0  0  0  0  0  0  0  0  0
   15.6538   45.0827   41.3462 H   0  0  0  0  0  0  0  0  0  0  0  0
   17.3203   44.4252   42.2554 C   0  0  0  0  0  0  0  0  0  0  0  0
   17.7779   44.1594   41.4422 H   0  0  0  0  0  0  0  0  0  0  0  0
   16.8667   43.6445   42.6111 H   0  0  0  0  0  0  0  0  0  0  0  0
   17.7736   45.7057   44.3934 C   0  0  0  0  0  0  0  0  0  0  0  0
   14.9368   46.6071   46.0590 C   0  0  0  0  0  0  0  0  0  0  0  0
   14.5250   45.8038   45.8331 H   0  0  0  0  0  0  0  0  0  0  0  0
   16.0240   47.0489   45.3364 C   0  0  0  0  0  0  0  0  0  0  0  0
   16.6117   48.2482   45.6674 C   0  0  0  0  0  0  0  0  0  0  0  0
   17.3269   48.5654   45.1644 H   0  0  0  0  0  0  0  0  0  0  0  0
   16.1493   48.9806   46.7350 C   0  0  0  0  0  0  0  0  0  0  0  0
   16.5636   49.7821   46.9611 H   0  0  0  0  0  0  0  0  0  0  0  0
   14.4575   47.3535   47.1160 C   0  0  0  0  0  0  0  0  0  0  0  0
   16.5275   54.6795   47.0271 H   0  0  0  0  0  0  0  0  0  0  0  0
   16.5536   46.2706   44.2529 N   0  0  0  0  0  0  0  0  0  0  0  0
   15.0776   48.5326   47.4683 C   0  0  0  0  0  0  0  0  0  0  0  0
   13.7145   47.0593   47.5919 H   0  0  0  0  0  0  0  0  0  0  0  0
   14.8663   48.6232   49.9378 C   0  0  0  0  0  0  0  0  0  0  0  0
   15.7632   48.8325   50.2413 H   0  0  0  0  0  0  0  0  0  0  0  0
   14.8004   47.6601   49.8417 H   0  0  0  0  0  0  0  0  0  0  0  0
   14.4041   50.6017   48.5149 C   0  0  0  0  0  0  0  0  0  0  0  0
   14.1923   51.2476   49.8201 C   0  0  0  0  0  0  0  0  0  0  0  0
   13.8624   50.5776   50.9635 C   0  0  0  0  0  0  0  0  0  0  0  0
   13.8673   49.0890   50.9797 C   0  0  0  0  0  0  0  0  0  0  0  0
   12.9826   48.7495   50.7714 H   0  0  0  0  0  0  0  0  0  0  0  0
   14.1229   48.7647   51.8570 H   0  0  0  0  0  0  0  0  0  0  0  0
   13.5797   51.5767   51.8958 C   0  0  0  0  0  0  0  0  0  0  0  0
   13.1087   51.4031   53.2880 C   0  0  0  0  0  0  0  0  0  0  0  0
   14.4089   53.7011   49.2520 C   0  0  0  0  0  0  0  0  0  0  0  0
   15.5079   53.6533   48.4243 C   0  0  0  0  0  0  0  0  0  0  0  0
   16.0622   52.9063   48.4305 H   0  0  0  0  0  0  0  0  0  0  0  0
   15.7871   54.7123   47.5874 C   0  0  0  0  0  0  0  0  0  0  0  0
   13.6040   54.8234   49.2748 C   0  0  0  0  0  0  0  0  0  0  0  0
   12.8724   54.8636   49.8479 H   0  0  0  0  0  0  0  0  0  0  0  0
   12.8828   52.4536   54.8823 H   0  0  0  0  0  0  0  0  0  0  0  0
   13.5218   53.1637   53.7779 H   0  0  0  0  0  0  0  0  0  0  0  0
   14.6378   49.2579   48.6266 N   0  0  0  0  0  0  0  0  0  0  0  0
   14.1028   52.5837   50.0872 N   0  0  0  0  0  0  0  0  0  0  0  0
   13.7418   52.7964   51.3701 N   0  0  0  0  0  0  0  0  0  0  0  0
   13.1488   52.4892   54.0541 N   0  0  0  0  0  0  0  0  0  0  0  0
   14.2909   51.1721   47.4492 O   0  0  0  0  0  0  0  0  0  0  0  0
   12.6857   50.3196   53.6528 O   0  0  0  0  0  0  0  0  0  0  0  0
   16.1422   56.7853   45.7660 C   0  0  0  0  0  0  0  0  0  0  0  0
   16.1248   57.5669   45.2085 H   0  0  0  0  0  0  0  0  0  0  0  0
   15.9847   56.0055   45.2289 H   0  0  0  0  0  0  0  0  0  0  0  0
   17.0017   56.7143   46.1886 H   0  0  0  0  0  0  0  0  0  0  0  0
   15.1349   56.8885   46.7570 O   0  0  0  0  0  0  0  0  0  0  0  0
   14.9707   55.8170   47.5823 C   0  0  0  0  0  0  0  0  0  0  0  0
   13.8913   55.8763   48.4464 C   0  0  0  0  0  0  0  0  0  0  0  0
   13.3571   56.6367   48.4651 H   0  0  0  0  0  0  0  0  0  0  0  0
   18.3230   44.9080   43.2496 C   0  0  0  0  0  0  0  0  0  0  0  0
   18.9766   45.4522   42.7841 H   0  0  0  0  0  0  0  0  0  0  0  0
   18.7903   44.1386   43.6101 H   0  0  0  0  0  0  0  0  0  0  0  0
   18.4283   45.8472   45.4224 O   0  0  0  0  0  0  0  0  0  0  0  0
   26.6814   46.0177   27.3867 C   0  0  0  0  0  0  0  0  0  0  0  0
   25.9872   45.4010   27.6701 H   0  0  0  0  0  0  0  0  0  0  0  0
   26.2505   46.8503   27.1383 H   0  0  0  0  0  0  0  0  0  0  0  0
   27.3490   45.4619   26.2032 C   0  0  0  0  0  0  0  0  0  0  0  0
   27.7885   46.1831   25.7240 H   0  0  0  0  0  0  0  0  0  0  0  0
   26.6790   45.0827   25.6138 H   0  0  0  0  0  0  0  0  0  0  0  0
   28.3455   44.4252   26.5230 C   0  0  0  0  0  0  0  0  0  0  0  0
   28.8031   44.1594   25.7098 H   0  0  0  0  0  0  0  0  0  0  0  0
   27.8919   43.6445   26.8787 H   0  0  0  0  0  0  0  0  0  0  0  0
   28.7988   45.7057   28.6610 C   0  0  0  0  0  0  0  0  0  0  0  0
   25.9620   46.6071   30.3266 C   0  0  0  0  0  0  0  0  0  0  0  0
   25.5502   45.8038   30.1007 H   0  0  0  0  0  0  0  0  0  0  0  0
   27.0492   47.0489   29.6040 C   0  0  0  0  0  0  0  0  0  0  0  0
   27.6369   48.2482   29.9350 C   0  0  0  0  0  0  0  0  0  0  0  0
   28.3521   48.5654   29.4321 H   0  0  0  0  0  0  0  0  0  0  0  0
   27.1745   48.9806   31.0026 C   0  0  0  0  0  0  0  0  0  0  0  0
   27.5888   49.7821   31.2287 H   0  0  0  0  0  0  0  0  0  0  0  0
   25.4827   47.3535   31.3837 C   0  0  0  0  0  0  0  0  0  0  0  0
   27.5527   54.6795   31.2948 H   0  0  0  0  0  0  0  0  0  0  0  0
   27.5788   46.2706   28.5205 N   0  0  0  0  0  0  0  0  0  0  0  0
   26.1028   48.5326   31.7359 C   0  0  0  0  0  0  0  0  0  0  0  0
   24.7397   47.0593   31.8596 H   0  0  0  0  0  0  0  0  0  0  0  0
   25.8915   48.6232   34.2054 C   0  0  0  0  0  0  0  0  0  0  0  0
   26.7884   48.8325   34.5089 H   0  0  0  0  0  0  0  0  0  0  0  0
   25.8256   47.6601   34.1093 H   0  0  0  0  0  0  0  0  0  0  0  0
   25.4293   50.6017   32.7826 C   0  0  0  0  0  0  0  0  0  0  0  0
   25.2175   51.2476   34.0878 C   0  0  0  0  0  0  0  0  0  0  0  0
   24.8876   50.5776   35.2312 C   0  0  0  0  0  0  0  0  0  0  0  0
   24.8925   49.0890   35.2474 C   0  0  0  0  0  0  0  0  0  0  0  0
   24.0078   48.7495   35.0391 H   0  0  0  0  0  0  0  0  0  0  0  0
   25.1481   48.7647   36.1246 H   0  0  0  0  0  0  0  0  0  0  0  0
   24.6049   51.5767   36.1635 C   0  0  0  0  0  0  0  0  0  0  0  0
   24.1339   51.4031   37.5556 C   0  0  0  0  0  0  0  0  0  0  0  0
   25.4341   53.7011   33.5197 C   0  0  0  0  0  0  0  0  0  0  0  0
   26.5331   53.6533   32.6920 C   0  0  0  0  0  0  0  0  0  0  0  0
   27.0874   52.9063   32.6981 H   0  0  0  0  0  0  0  0  0  0  0  0
   26.8123   54.7123   31.8550 C   0  0  0  0  0  0  0  0  0  0  0  0
   24.6292   54.8234   33.5425 C   0  0  0  0  0  0  0  0  0  0  0  0
   23.8976   54.8636   34.1156 H   0  0  0  0  0  0  0  0  0  0  0  0
   23.9080   52.4536   39.1500 H   0  0  0  0  0  0  0  0  0  0  0  0
   24.5470   53.1637   38.0455 H   0  0  0  0  0  0  0  0  0  0  0  0
   25.6630   49.2579   32.8943 N   0  0  0  0  0  0  0  0  0  0  0  0
   25.1280   52.5837   34.3549 N   0  0  0  0  0  0  0  0  0  0  0  0
   24.7670   52.7964   35.6377 N   0  0  0  0  0  0  0  0  0  0  0  0
   24.1740   52.4892   38.3218 N   0  0  0  0  0  0  0  0  0  0  0  0
   25.3161   51.1721   31.7169 O   0  0  0  0  0  0  0  0  0  0  0  0
   23.7109   50.3196   37.9205 O   0  0  0  0  0  0  0  0  0  0  0  0
   27.1674   56.7853   30.0337 C   0  0  0  0  0  0  0  0  0  0  0  0
   27.1500   57.5669   29.4761 H   0  0  0  0  0  0  0  0  0  0  0  0
   27.0099   56.0055   29.4966 H   0  0  0  0  0  0  0  0  0  0  0  0
   28.0269   56.7143   30.4563 H   0  0  0  0  0  0  0  0  0  0  0  0
   26.1601   56.8885   31.0247 O   0  0  0  0  0  0  0  0  0  0  0  0
   25.9959   55.8170   31.8500 C   0  0  0  0  0  0  0  0  0  0  0  0
   24.9165   55.8763   32.7140 C   0  0  0  0  0  0  0  0  0  0  0  0
   24.3823   56.6367   32.7327 H   0  0  0  0  0  0  0  0  0  0  0  0
   29.3482   44.9080   27.5173 C   0  0  0  0  0  0  0  0  0  0  0  0
   30.0018   45.4522   27.0518 H   0  0  0  0  0  0  0  0  0  0  0  0
   29.8155   44.1386   27.8777 H   0  0  0  0  0  0  0  0  0  0  0  0
   29.4535   45.8472   29.6901 O   0  0  0  0  0  0  0  0  0  0  0  0
   25.9132   25.2544   43.4089 C   0  0  0  0  0  0  0  0  0  0  0  0
   26.6074   24.6377   43.1255 H   0  0  0  0  0  0  0  0  0  0  0  0
   26.3441   26.0870   43.6573 H   0  0  0  0  0  0  0  0  0  0  0  0
   25.2456   24.6986   44.5924 C   0  0  0  0  0  0  0  0  0  0  0  0
   24.8061   25.4198   45.0716 H   0  0  0  0  0  0  0  0  0  0  0  0
   25.9156   24.3194   45.1817 H   0  0  0  0  0  0  0  0  0  0  0  0
   24.2491   23.6619   44.2726 C   0  0  0  0  0  0  0  0  0  0  0  0
   23.7915   23.3961   45.0858 H   0  0  0  0  0  0  0  0  0  0  0  0
   24.7027   22.8812   43.9169 H   0  0  0  0  0  0  0  0  0  0  0  0
   23.2464   24.1447   43.2783 C   0  0  0  0  0  0  0  0  0  0  0  0
   22.5928   24.6889   43.7438 H   0  0  0  0  0  0  0  0  0  0  0  0
   22.7791   23.3753   42.9178 H   0  0  0  0  0  0  0  0  0  0  0  0
   23.7959   24.9424   42.1345 C   0  0  0  0  0  0  0  0  0  0  0  0
   26.6326   25.8438   40.4690 C   0  0  0  0  0  0  0  0  0  0  0  0
   27.0445   25.0405   40.6949 H   0  0  0  0  0  0  0  0  0  0  0  0
   25.5454   26.2856   41.1915 C   0  0  0  0  0  0  0  0  0  0  0  0
   24.9577   27.4849   40.8605 C   0  0  0  0  0  0  0  0  0  0  0  0
   27.1119   26.5902   39.4119 C   0  0  0  0  0  0  0  0  0  0  0  0
   27.8550   26.2960   38.9360 H   0  0  0  0  0  0  0  0  0  0  0  0
   26.7690   26.8968   36.6863 H   0  0  0  0  0  0  0  0  0  0  0  0
   25.0158   25.5073   42.2750 N   0  0  0  0  0  0  0  0  0  0  0  0
   23.1411   25.0839   41.1055 O   0  0  0  0  0  0  0  0  0  0  0  0
   24.2425   27.8021   41.3635 H   0  0  0  0  0  0  0  0  0  0  0  0
   25.4201   28.2173   39.7929 C   0  0  0  0  0  0  0  0  0  0  0  0
   25.0058   29.0188   39.5669 H   0  0  0  0  0  0  0  0  0  0  0  0
   26.4918   27.7693   39.0596 C   0  0  0  0  0  0  0  0  0  0  0  0
   26.7031   27.8599   36.5901 C   0  0  0  0  0  0  0  0  0  0  0  0
   25.8062   28.0692   36.2867 H   0  0  0  0  0  0  0  0  0  0  0  0
   27.1653   29.8384   38.0130 C   0  0  0  0  0  0  0  0  0  0  0  0
   27.3771   30.4843   36.7078 C   0  0  0  0  0  0  0  0  0  0  0  0
   27.7070   29.8143   35.5644 C   0  0  0  0  0  0  0  0  0  0  0  0
   27.7021   28.3257   35.5482 C   0  0  0  0  0  0  0  0  0  0  0  0
   28.5868   27.9862   35.7565 H   0  0  0  0  0  0  0  0  0  0  0  0
   27.4465   28.0014   34.6710 H   0  0  0  0  0  0  0  0  0  0  0  0
   27.9897   30.8134   34.6321 C   0  0  0  0  0  0  0  0  0  0  0  0
   28.4607   30.6398   33.2399 C   0  0  0  0  0  0  0  0  0  0  0  0
   27.1605   32.9378   37.2759 C   0  0  0  0  0  0  0  0  0  0  0  0
   26.0615   32.8900   38.1036 C   0  0  0  0  0  0  0  0  0  0  0  0
   25.5072   32.1430   38.0975 H   0  0  0  0  0  0  0  0  0  0  0  0
   25.7823   33.9490   38.9406 C   0  0  0  0  0  0  0  0  0  0  0  0
   25.0419   33.9162   39.5008 H   0  0  0  0  0  0  0  0  0  0  0  0
   26.5987   35.0537   38.9456 C   0  0  0  0  0  0  0  0  0  0  0  0
   27.6781   35.1130   38.0816 C   0  0  0  0  0  0  0  0  0  0  0  0
   28.2124   35.8734   38.0628 H   0  0  0  0  0  0  0  0  0  0  0  0
   27.9654   34.0601   37.2531 C   0  0  0  0  0  0  0  0  0  0  0  0
   28.6970   34.1003   36.6800 H   0  0  0  0  0  0  0  0  0  0  0  0
   25.4272   36.0220   40.7619 C   0  0  0  0  0  0  0  0  0  0  0  0
   25.4446   36.8036   41.3194 H   0  0  0  0  0  0  0  0  0  0  0  0
   25.5847   35.2422   41.2990 H   0  0  0  0  0  0  0  0  0  0  0  0
   24.5677   35.9510   40.3393 H   0  0  0  0  0  0  0  0  0  0  0  0
   28.6866   31.6903   31.6456 H   0  0  0  0  0  0  0  0  0  0  0  0
   28.0476   32.4004   32.7500 H   0  0  0  0  0  0  0  0  0  0  0  0
   26.9316   28.4946   37.9013 N   0  0  0  0  0  0  0  0  0  0  0  0
   27.4666   31.8204   36.4407 N   0  0  0  0  0  0  0  0  0  0  0  0
   27.8276   32.0331   35.1579 N   0  0  0  0  0  0  0  0  0  0  0  0
   28.4206   31.7259   32.4738 N   0  0  0  0  0  0  0  0  0  0  0  0
   27.2785   30.4088   39.0787 O   0  0  0  0  0  0  0  0  0  0  0  0
   28.8837   29.5563   32.8751 O   0  0  0  0  0  0  0  0  0  0  0  0
   26.4345   36.1252   39.7709 O   0  0  0  0  0  0  0  0  0  0  0  0
  2  3  1  0  0  0  0
  2  4  4  0  0  0  0
  5  6  1  0  0  0  0
  7  8  1  0  0  0  0
  8  9  4  0  0  0  0
  5 10  1  0  0  0  0
  9 10  1  0  0  0  0
 10 11  1  0  0  0  0
 10 12  1  0  0  0  0
  9 13  4  0  0  0  0
 13 14  1  0  0  0  0
 15 16  4  0  0  0  0
 16 17  1  0  0  0  0
 16 18  4  0  0  0  0
 18 19  1  0  0  0  0
 18 20  4  0  0  0  0
 20 21  4  0  0  0  0
 21 22  1  0  0  0  0
 15 23  4  0  0  0  0
 21 23  4  0  0  0  0
 23 24  1  0  0  0  0
 25 26  1  0  0  0  0
 25 27  1  0  0  0  0
 25 28  1  0  0  0  0
  4 31  1  0  0  0  0
  5 31  1  0  0  0  0
  7 31  4  0  0  0  0
  8 32  4  0  0  0  0
 15 32  1  0  0  0  0
 13 33  4  0  0  0  0
 32 33  4  0  0  0  0
 14 34  4  0  0  0  0
 29 34  1  0  0  0  0
 30 34  1  0  0  0  0
  7 35  2  0  0  0  0
 14 36  2  0  0  0  0
 20 37  1  0  0  0  0
 25 37  1  0  0  0  0
 38 39  1  0  0  0  0
 38 40  1  0  0  0  0
 38 41  1  0  0  0  0
 41 42  1  0  0  0  0
 41 43  1  0  0  0  0
 41 44  1  0  0  0  0
 44 45  1  0  0  0  0
 44 46  1  0  0  0  0
 44 47  1  0  0  0  0
 47 48  1  0  0  0  0
 47 49  1  0  0  0  0
 47 50  1  0  0  0  0
 51 52  1  0  0  0  0
 51 53  4  0  0  0  0
  1 54  1  0  0  0  0
  2 54  4  0  0  0  0
 53 54  4  0  0  0  0
  4 55  4  0  0  0  0
 51 55  4  0  0  0  0
 55 56  1  0  0  0  0
  5 57  1  0  0  0  0
 38 58  1  0  0  0  0
 50 58  4  0  0  0  0
 53 58  1  0  0  0  0
 50 59  2  0  0  0  0
 60 61  1  0  0  0  0
 60 62  1  0  0  0  0
 60 63  1  0  0  0  0
 63 64  1  0  0  0  0
 63 65  1  0  0  0  0
 63 66  1  0  0  0  0
 66 67  1  0  0  0  0
 66 68  1  0  0  0  0
 66 69  1  0  0  0  0
 69 70  1  0  0  0  0
 69 71  1  0  0  0  0
 69 72  1  0  0  0  0
 73 74  1  0  0  0  0
 73 75  4  0  0  0  0
 75 76  4  0  0  0  0
 73 77  4  0  0  0  0
 77 78  1  0  0  0  0
 60 80  1  0  0  0  0
 72 80  4  0  0  0  0
 75 80  1  0  0  0  0
 72 81  2  0  0  0  0
 76 82  1  0  0  0  0
 76 83  4  0  0  0  0
 83 84  1  0  0  0  0
 77 85  4  0  0  0  0
 83 85  4  0  0  0  0
 79 86  1  0  0  0  0
 86 87  1  0  0  0  0
 88 89  1  0  0  0  0
 89 90  4  0  0  0  0
 86 91  1  0  0  0  0
 90 91  1  0  0  0  0
 91 92  1  0  0  0  0
 91 93  1  0  0  0  0
 90 94  4  0  0  0  0
 94 95  1  0  0  0  0
 96 97  4  0  0  0  0
 97 98  1  0  0  0  0
 97 99  4  0  0  0  0
 99100  1  0  0  0  0
 99101  4  0  0  0  0
101102  4  0  0  0  0
102103  1  0  0  0  0
 96104  4  0  0  0  0
102104  4  0  0  0  0
104105  1  0  0  0  0
106107  1  0  0  0  0
106108  1  0  0  0  0
106109  1  0  0  0  0
 85112  1  0  0  0  0
 86112  1  0  0  0  0
 88112  4  0  0  0  0
 89113  4  0  0  0  0
 96113  1  0  0  0  0
 94114  4  0  0  0  0
113114  4  0  0  0  0
 95115  4  0  0  0  0
110115  1  0  0  0  0
111115  1  0  0  0  0
 88116  2  0  0  0  0
 95117  2  0  0  0  0
101118  1  0  0  0  0
106118  1  0  0  0  0
119120  1  0  0  0  0
119121  1  0  0  0  0
119122  1  0  0  0  0
122123  1  0  0  0  0
122124  1  0  0  0  0
122125  1  0  0  0  0
125126  1  0  0  0  0
125127  1  0  0  0  0
125128  1  0  0  0  0
128129  1  0  0  0  0
128130  1  0  0  0  0
128131  1  0  0  0  0
132133  1  0  0  0  0
132134  4  0  0  0  0
134135  4  0  0  0  0
132136  4  0  0  0  0
136137  1  0  0  0  0
119139  1  0  0  0  0
131139  4  0  0  0  0
134139  1  0  0  0  0
131140  2  0  0  0  0
135141  1  0  0  0  0
135142  4  0  0  0  0
142143  1  0  0  0  0
136144  4  0  0  0  0
142144  4  0  0  0  0
138145  1  0  0  0  0
145146  1  0  0  0  0
147148  1  0  0  0  0
148149  4  0  0  0  0
145150  1  0  0  0  0
149150  1  0  0  0  0
150151  1  0  0  0  0
150152  1  0  0  0  0
149153  4  0  0  0  0
153154  1  0  0  0  0
155156  4  0  0  0  0
156157  1  0  0  0  0
156158  4  0  0  0  0
158159  1  0  0  0  0
158160  4  0  0  0  0
160161  4  0  0  0  0
161162  1  0  0  0  0
155163  4  0  0  0  0
161163  4  0  0  0  0
163164  1  0  0  0  0
165166  1  0  0  0  0
165167  1  0  0  0  0
165168  1  0  0  0  0
144171  1  0  0  0  0
145171  1  0  0  0  0
147171  1  0  0  0  0
148172  4  0  0  0  0
155172  1  0  0  0  0
153173  4  0  0  0  0
172173  4  0  0  0  0
154174  4  0  0  0  0
169174  1  0  0  0  0
170174  1  0  0  0  0
147175  2  0  0  0  0
154176  2  0  0  0  0
160177  1  0  0  0  0
165177  1  0  0  0  0
178179  1  0  0  0  0
178180  1  0  0  0  0
182183  4  0  0  0  0
183184  1  0  0  0  0
185186  1  0  0  0  0
185187  1  0  0  0  0
185188  1  0  0  0  0
182189  1  0  0  0  0
185189  1  0  0  0  0
192193  1  0  0  0  0
192194  1  0  0  0  0
195196  1  0  0  0  0
196197  4  0  0  0  0
192198  1  0  0  0  0
197198  1  0  0  0  0
198199  1  0  0  0  0
198200  1  0  0  0  0
197201  4  0  0  0  0
201202  1  0  0  0  0
203204  4  0  0  0  0
204205  1  0  0  0  0
182206  4  0  0  0  0
204206  4  0  0  0  0
183207  4  0  0  0  0
203207  4  0  0  0  0
207208  1  0  0  0  0
190211  1  0  0  0  0
192211  1  0  0  0  0
195211  1  0  0  0  0
196212  4  0  0  0  0
203212  1  0  0  0  0
201213  4  0  0  0  0
212213  4  0  0  0  0
202214  4  0  0  0  0
209214  1  0  0  0  0
210214  1  0  0  0  0
195215  2  0  0  0  0
202216  2  0  0  0  0
217218  1  0  0  0  0
217219  1  0  0  0  0
217220  1  0  0  0  0
220221  1  0  0  0  0
220222  1  0  0  0  0
178223  1  0  0  0  0
220223  1  0  0  0  0
223224  1  0  0  0  0
223225  1  0  0  0  0
178226  1  0  0  0  0
181226  2  0  0  0  0
227228  1  0  0  0  0
227229  4  0  0  0  0
229230  4  0  0  0  0
230231  1  0  0  0  0
190232  4  0  0  0  0
230232  4  0  0  0  0
232233  1  0  0  0  0
190234  4  0  0  0  0
191234  1  0  0  0  0
227234  4  0  0  0  0
206235  1  0  0  0  0
217236  1  0  0  0  0
226236  4  0  0  0  0
229236  1  0  0  0  0
237238  1  0  0  0  0
237239  1  0  0  0  0
241242  4  0  0  0  0
242243  1  0  0  0  0
244245  1  0  0  0  0
244246  1  0  0  0  0
244247  1  0  0  0  0
241248  1  0  0  0  0
244248  1  0  0  0  0
251252  1  0  0  0  0
251253  1  0  0  0  0
254255  1  0  0  0  0
255256  4  0  0  0  0
251257  1  0  0  0  0
256257  1  0  0  0  0
257258  1  0  0  0  0
257259  1  0  0  0  0
256260  4  0  0  0  0
260261  1  0  0  0  0
262263  4  0  0  0  0
263264  1  0  0  0  0
241265  4  0  0  0  0
263265  4  0  0  0  0
242266  4  0  0  0  0
262266  4  0  0  0  0
266267  1  0  0  0  0
249270  1  0  0  0  0
251270  1  0  0  0  0
254270  1  0  0  0  0
255271  4  0  0  0  0
262271  1  0  0  0  0
260272  4  0  0  0  0
271272  4  0  0  0  0
261273  4  0  0  0  0
268273  1  0  0  0  0
269273  1  0  0  0  0
254274  2  0  0  0  0
261275  2  0  0  0  0
276277  1  0  0  0  0
276278  1  0  0  0  0
276279  1  0  0  0  0
279280  1  0  0  0  0
279281  1  0  0  0  0
237282  1  0  0  0  0
279282  1  0  0  0  0
282283  1  0  0  0  0
282284  1  0  0  0  0
237285  1  0  0  0  0
240285  2  0  0  0  0
286287  1  0  0  0  0
286288  4  0  0  0  0
288289  4  0  0  0  0
289290  1  0  0  0  0
249291  4  0  0  0  0
289291  4  0  0  0  0
291292  1  0  0  0  0
249293  4  0  0  0  0
250293  1  0  0  0  0
286293  4  0  0  0  0
265294  1  0  0  0  0
276295  1  0  0  0  0
285295  4  0  0  0  0
288295  1  0  0  0  0
296297  1  0  0  0  0
296298  1  0  0  0  0
296299  1  0  0  0  0
299300  1  0  0  0  0
299301  1  0  0  0  0
299302  1  0  0  0  0
302303  1  0  0  0  0
302304  1  0  0  0  0
306307  1  0  0  0  0
306308  4  0  0  0  0
308309  4  0  0  0  0
309310  1  0  0  0  0
309311  4  0  0  0  0
311312  1  0  0  0  0
306313  4  0  0  0  0
296315  1  0  0  0  0
305315  4  0  0  0  0
308315  1  0  0  0  0
311316  4  0  0  0  0
313316  4  0  0  0  0
313317  1  0  0  0  0
318319  1  0  0  0  0
318320  1  0  0  0  0
321322  1  0  0  0  0
322323  4  0  0  0  0
318324  1  0  0  0  0
323324  1  0  0  0  0
324325  1  0  0  0  0
324326  1  0  0  0  0
323327  4  0  0  0  0
327328  1  0  0  0  0
329330  4  0  0  0  0
330331  1  0  0  0  0
314332  1  0  0  0  0
330332  4  0  0  0  0
329333  4  0  0  0  0
333334  1  0  0  0  0
316337  1  0  0  0  0
318337  1  0  0  0  0
321337  4  0  0  0  0
322338  4  0  0  0  0
329338  1  0  0  0  0
327339  4  0  0  0  0
338339  4  0  0  0  0
328340  4  0  0  0  0
335340  1  0  0  0  0
336340  1  0  0  0  0
321341  2  0  0  0  0
328342  2  0  0  0  0
343344  1  0  0  0  0
343345  1  0  0  0  0
343346  1  0  0  0  0
343347  1  0  0  0  0
332348  4  0  0  0  0
347348  1  0  0  0  0
333349  4  0  0  0  0
348349  4  0  0  0  0
349350  1  0  0  0  0
302351  1  0  0  0  0
305351  1  0  0  0  0
351352  1  0  0  0  0
351353  1  0  0  0  0
305354  2  0  0  0  0
355356  1  0  0  0  0
355357  1  0  0  0  0
355358  1  0  0  0  0
358359  1  0  0  0  0
358360  1  0  0  0  0
358361  1  0  0  0  0
361362  1  0  0  0  0
361363  1  0  0  0  0
365366  1  0  0  0  0
365367  4  0  0  0  0
367368  4  0  0  0  0
368369  1  0  0  0  0
368370  4  0  0  0  0
370371  1  0  0  0  0
365372  4  0  0  0  0
355374  1  0  0  0  0
364374  4  0  0  0  0
367374  1  0  0  0  0
370375  4  0  0  0  0
372375  4  0  0  0  0
372376  1  0  0  0  0
377378  1  0  0  0  0
377379  1  0  0  0  0
380381  1  0  0  0  0
381382  4  0  0  0  0
377383  1  0  0  0  0
382383  1  0  0  0  0
383384  1  0  0  0  0
383385  1  0  0  0  0
382386  4  0  0  0  0
386387  1  0  0  0  0
388389  4  0  0  0  0
389390  1  0  0  0  0
373391  1  0  0  0  0
389391  4  0  0  0  0
388392  4  0  0  0  0
392393  1  0  0  0  0
375396  1  0  0  0  0
377396  1  0  0  0  0
380396  4  0  0  0  0
381397  4  0  0  0  0
388397  1  0  0  0  0
386398  4  0  0  0  0
397398  4  0  0  0  0
387399  4  0  0  0  0
394399  1  0  0  0  0
395399  1  0  0  0  0
380400  2  0  0  0  0
387401  2  0  0  0  0
402403  1  0  0  0  0
402404  1  0  0  0  0
402405  1  0  0  0  0
402406  1  0  0  0  0
391407  4  0  0  0  0
406407  1  0  0  0  0
392408  4  0  0  0  0
407408  4  0  0  0  0
408409  1  0  0  0  0
361410  1  0  0  0  0
364410  1  0  0  0  0
410411  1  0  0  0  0
410412  1  0  0  0  0
364413  2  0  0  0  0
414415  1  0  0  0  0
414416  1  0  0  0  0
418419  4  0  0  0  0
419420  1  0  0  0  0
421422  1  0  0  0  0
421423  1  0  0  0  0
421424  1  0  0  0  0
418425  1  0  0  0  0
421425  1  0  0  0  0
428429  1  0  0  0  0
428430  1  0  0  0  0
431432  1  0  0  0  0
432433  4  0  0  0  0
428434  1  0  0  0  0
433434  1  0  0  0  0
434435  1  0  0  0  0
434436  1  0  0  0  0
433437  4  0  0  0  0
437438  1  0  0  0  0
439440  4  0  0  0  0
440441  1  0  0  0  0
418442  4  0  0  0  0
440442  4  0  0  0  0
419443  4  0  0  0  0
439443  4  0  0  0  0
443444  1  0  0  0  0
426447  1  0  0  0  0
428447  1  0  0  0  0
431447  4  0  0  0  0
432448  4  0  0  0  0
439448  1  0  0  0  0
437449  4  0  0  0  0
448449  4  0  0  0  0
438450  4  0  0  0  0
445450  1  0  0  0  0
446450  1  0  0  0  0
431451  2  0  0  0  0
438452  2  0  0  0  0
453454  1  0  0  0  0
453455  1  0  0  0  0
453456  1  0  0  0  0
456457  1  0  0  0  0
456458  1  0  0  0  0
414459  1  0  0  0  0
456459  1  0  0  0  0
459460  1  0  0  0  0
459461  1  0  0  0  0
414462  1  0  0  0  0
417462  2  0  0  0  0
463464  1  0  0  0  0
463465  4  0  0  0  0
465466  4  0  0  0  0
466467  1  0  0  0  0
426468  4  0  0  0  0
466468  4  0  0  0  0
468469  1  0  0  0  0
426470  4  0  0  0  0
427470  1  0  0  0  0
463470  4  0  0  0  0
442471  1  0  0  0  0
453472  1  0  0  0  0
462472  4  0  0  0  0
465472  1  0  0  0  0
473474  1  0  0  0  0
473475  1  0  0  0  0
477478  4  0  0  0  0
478479  1  0  0  0  0
480481  1  0  0  0  0
480482  1  0  0  0  0
480483  1  0  0  0  0
477484  1  0  0  0  0
480484  1  0  0  0  0
487488  1  0  0  0  0
487489  1  0  0  0  0
490491  1  0  0  0  0
491492  4  0  0  0  0
487493  1  0  0  0  0
492493  1  0  0  0  0
493494  1  0  0  0  0
493495  1  0  0  0  0
492496  4  0  0  0  0
496497  1  0  0  0  0
498499  4  0  0  0  0
499500  1  0  0  0  0
477501  4  0  0  0  0
499501  4  0  0  0  0
478502  4  0  0  0  0
498502  4  0  0  0  0
502503  1  0  0  0  0
485506  1  0  0  0  0
487506  1  0  0  0  0
490506  4  0  0  0  0
491507  4  0  0  0  0
498507  1  0  0  0  0
496508  4  0  0  0  0
507508  4  0  0  0  0
497509  4  0  0  0  0
504509  1  0  0  0  0
505509  1  0  0  0  0
490510  2  0  0  0  0
497511  2  0  0  0  0
512513  1  0  0  0  0
512514  1  0  0  0  0
512515  1  0  0  0  0
515516  1  0  0  0  0
515517  1  0  0  0  0
473518  1  0  0  0  0
515518  1  0  0  0  0
518519  1  0  0  0  0
518520  1  0  0  0  0
473521  1  0  0  0  0
476521  2  0  0  0  0
522523  1  0  0  0  0
522524  4  0  0  0  0
524525  4  0  0  0  0
525526  1  0  0  0  0
485527  4  0  0  0  0
525527  4  0  0  0  0
527528  1  0  0  0  0
485529  4  0  0  0  0
486529  1  0  0  0  0
522529  4  0  0  0  0
501530  1  0  0  0  0
512531  1  0  0  0  0
521531  4  0  0  0  0
524531  1  0  0  0  0
532533  1  0  0  0  0
532534  1  0  0  0  0
532535  1  0  0  0  0
535536  1  0  0  0  0
535537  1  0  0  0  0
535538  1  0  0  0  0
538539  1  0  0  0  0
538540  1  0  0  0  0
538541  1  0  0  0  0
541542  1  0  0  0  0
541543  1  0  0  0  0
541544  1  0  0  0  0
545546  1  0  0  0  0
545547  4  0  0  0  0
547548  4  0  0  0  0
545549  4  0  0  0  0
549550  1  0  0  0  0
532552  1  0  0  0  0
544552  4  0  0  0  0
547552  1  0  0  0  0
544553  2  0  0  0  0
548554  1  0  0  0  0
548555  4  0  0  0  0
555556  1  0  0  0  0
549557  4  0  0  0  0
555557  4  0  0  0  0
551558  1  0  0  0  0
558559  1  0  0  0  0
560561  1  0  0  0  0
561562  4  0  0  0  0
558563  1  0  0  0  0
562563  1  0  0  0  0
563564  1  0  0  0  0
563565  1  0  0  0  0
562566  4  0  0  0  0
566567  1  0  0  0  0
568569  4  0  0  0  0
569570  1  0  0  0  0
569571  4  0  0  0  0
571572  1  0  0  0  0
571573  4  0  0  0  0
573574  4  0  0  0  0
574575  1  0  0  0  0
568576  4  0  0  0  0
574576  4  0  0  0  0
576577  1  0  0  0  0
578579  1  0  0  0  0
578580  1  0  0  0  0
578581  1  0  0  0  0
557584  1  0  0  0  0
558584  1  0  0  0  0
560584  4  0  0  0  0
561585  4  0  0  0  0
568585  1  0  0  0  0
566586  4  0  0  0  0
585586  4  0  0  0  0
567587  4  0  0  0  0
582587  1  0  0  0  0
583587  1  0  0  0  0
560588  2  0  0  0  0
567589  2  0  0  0  0
573590  1  0  0  0  0
578590  1  0  0  0  0
592593  1  0  0  0  0
592594  4  0  0  0  0
595596  1  0  0  0  0
597598  1  0  0  0  0
598599  4  0  0  0  0
595600  1  0  0  0  0
599600  1  0  0  0  0
600601  1  0  0  0  0
600602  1  0  0  0  0
599603  4  0  0  0  0
603604  1  0  0  0  0
605606  4  0  0  0  0
606607  1  0  0  0  0
606608  4  0  0  0  0
608609  1  0  0  0  0
608610  4  0  0  0  0
610611  4  0  0  0  0
611612  1  0  0  0  0
605613  4  0  0  0  0
611613  4  0  0  0  0
613614  1  0  0  0  0
615616  1  0  0  0  0
615617  1  0  0  0  0
615618  1  0  0  0  0
594621  1  0  0  0  0
595621  1  0  0  0  0
597621  4  0  0  0  0
598622  4  0  0  0  0
605622  1  0  0  0  0
603623  4  0  0  0  0
622623  4  0  0  0  0
604624  4  0  0  0  0
619624  1  0  0  0  0
620624  1  0  0  0  0
597625  2  0  0  0  0
604626  2  0  0  0  0
610627  1  0  0  0  0
615627  1  0  0  0  0
628629  1  0  0  0  0
628630  1  0  0  0  0
628631  1  0  0  0  0
631632  1  0  0  0  0
631633  1  0  0  0  0
631634  1  0  0  0  0
634635  1  0  0  0  0
634636  1  0  0  0  0
634637  1  0  0  0  0
637638  1  0  0  0  0
637639  1  0  0  0  0
637640  1  0  0  0  0
641642  1  0  0  0  0
641643  4  0  0  0  0
591644  1  0  0  0  0
592644  4  0  0  0  0
643644  4  0  0  0  0
594645  4  0  0  0  0
641645  4  0  0  0  0
645646  1  0  0  0  0
595647  1  0  0  0  0
628648  1  0  0  0  0
640648  4  0  0  0  0
643648  1  0  0  0  0
640649  2  0  0  0  0
651652  1  0  0  0  0
651653  4  0  0  0  0
654655  1  0  0  0  0
656657  1  0  0  0  0
657658  4  0  0  0  0
654659  1  0  0  0  0
658659  1  0  0  0  0
659660  1  0  0  0  0
659661  1  0  0  0  0
658662  4  0  0  0  0
662663  1  0  0  0  0
664665  4  0  0  0  0
665666  1  0  0  0  0
665667  4  0  0  0  0
667668  1  0  0  0  0
667669  4  0  0  0  0
669670  4  0  0  0  0
670671  1  0  0  0  0
664672  4  0  0  0  0
670672  4  0  0  0  0
672673  1  0  0  0  0
674675  1  0  0  0  0
674676  1  0  0  0  0
674677  1  0  0  0  0
653680  1  0  0  0  0
654680  1  0  0  0  0
656680  4  0  0  0  0
657681  4  0  0  0  0
664681  1  0  0  0  0
662682  4  0  0  0  0
681682  4  0  0  0  0
663683  4  0  0  0  0
678683  1  0  0  0  0
679683  1  0  0  0  0
656684  2  0  0  0  0
663685  2  0  0  0  0
669686  1  0  0  0  0
674686  1  0  0  0  0
687688  1  0  0  0  0
687689  1  0  0  0  0
687690  1  0  0  0  0
690691  1  0  0  0  0
690692  1  0  0  0  0
690693  1  0  0  0  0
693694  1  0  0  0  0
693695  1  0  0  0  0
693696  1  0  0  0  0
696697  1  0  0  0  0
696698  1  0  0  0  0
696699  1  0  0  0  0
700701  1  0  0  0  0
700702  4  0  0  0  0
650703  1  0  0  0  0
651703  4  0  0  0  0
702703  4  0  0  0  0
653704  4  0  0  0  0
700704  4  0  0  0  0
704705  1  0  0  0  0
654706  1  0  0  0  0
687707  1  0  0  0  0
699707  4  0  0  0  0
702707  1  0  0  0  0
699708  2  0  0  0  0
709710  1  0  0  0  0
709711  1  0  0  0  0
709712  1  0  0  0  0
712713  1  0  0  0  0
712714  1  0  0  0  0
712715  1  0  0  0  0
715716  1  0  0  0  0
715717  1  0  0  0  0
719720  1  0  0  0  0
719721  4  0  0  0  0
721722  4  0  0  0  0
722723  1  0  0  0  0
722724  4  0  0  0  0
724725  1  0  0  0  0
719726  4  0  0  0  0
709728  1  0  0  0  0
718728  4  0  0  0  0
721728  1  0  0  0  0
724729  4  0  0  0  0
726729  4  0  0  0  0
726730  1  0  0  0  0
731732  1  0  0  0  0
731733  1  0  0  0  0
734735  1  0  0  0  0
735736  4  0  0  0  0
731737  1  0  0  0  0
736737  1  0  0  0  0
737738  1  0  0  0  0
737739  1  0  0  0  0
736740  4  0  0  0  0
740741  1  0  0  0  0
742743  4  0  0  0  0
743744  1  0  0  0  0
727745  1  0  0  0  0
743745  4  0  0  0  0
742746  4  0  0  0  0
746747  1  0  0  0  0
729750  1  0  0  0  0
731750  1  0  0  0  0
734750  1  0  0  0  0
735751  4  0  0  0  0
742751  1  0  0  0  0
740752  4  0  0  0  0
751752  4  0  0  0  0
741753  4  0  0  0  0
748753  1  0  0  0  0
749753  1  0  0  0  0
734754  2  0  0  0  0
741755  2  0  0  0  0
756757  1  0  0  0  0
756758  1  0  0  0  0
756759  1  0  0  0  0
756760  1  0  0  0  0
745761  4  0  0  0  0
760761  1  0  0  0  0
746762  4  0  0  0  0
761762  4  0  0  0  0
762763  1  0  0  0  0
715764  1  0  0  0  0
718764  1  0  0  0  0
764765  1  0  0  0  0
764766  1  0  0  0  0
718767  2  0  0  0  0
768769  1  0  0  0  0
768770  1  0  0  0  0
768771  1  0  0  0  0
771772  1  0  0  0  0
771773  1  0  0  0  0
771774  1  0  0  0  0
774775  1  0  0  0  0
774776  1  0  0  0  0
778779  1  0  0  0  0
778780  4  0  0  0  0
780781  4  0  0  0  0
781782  1  0  0  0  0
781783  4  0  0  0  0
783784  1  0  0  0  0
778785  4  0  0  0  0
768787  1  0  0  0  0
777787  4  0  0  0  0
780787  1  0  0  0  0
783788  4  0  0  0  0
785788  4  0  0  0  0
785789  1  0  0  0  0
790791  1  0  0  0  0
790792  1  0  0  0  0
793794  1  0  0  0  0
794795  4  0  0  0  0
790796  1  0  0  0  0
795796  1  0  0  0  0
796797  1  0  0  0  0
796798  1  0  0  0  0
795799  4  0  0  0  0
799800  1  0  0  0  0
801802  4  0  0  0  0
802803  1  0  0  0  0
786804  1  0  0  0  0
802804  4  0  0  0  0
801805  4  0  0  0  0
805806  1  0  0  0  0
788809  1  0  0  0  0
790809  1  0  0  0  0
793809  4  0  0  0  0
794810  4  0  0  0  0
801810  1  0  0  0  0
799811  4  0  0  0  0
810811  4  0  0  0  0
800812  4  0  0  0  0
807812  1  0  0  0  0
808812  1  0  0  0  0
793813  2  0  0  0  0
800814  2  0  0  0  0
815816  1  0  0  0  0
815817  1  0  0  0  0
815818  1  0  0  0  0
815819  1  0  0  0  0
804820  4  0  0  0  0
819820  1  0  0  0  0
805821  4  0  0  0  0
820821  4  0  0  0  0
821822  1  0  0  0  0
774823  1  0  0  0  0
777823  1  0  0  0  0
823824  1  0  0  0  0
823825  1  0  0  0  0
777826  2  0  0  0  0
827828  1  0  0  0  0
827829  1  0  0  0  0
827830  1  0  0  0  0
830831  1  0  0  0  0
830832  1  0  0  0  0
830833  1  0  0  0  0
833834  1  0  0  0  0
833835  1  0  0  0  0
833836  1  0  0  0  0
836837  1  0  0  0  0
836838  1  0  0  0  0
836839  1  0  0  0  0
840841  1  0  0  0  0
840842  4  0  0  0  0
842843  4  0  0  0  0
840844  4  0  0  0  0
844845  1  0  0  0  0
827847  1  0  0  0  0
839847  4  0  0  0  0
842847  1  0  0  0  0
839848  2  0  0  0  0
843849  1  0  0  0  0
843850  4  0  0  0  0
850851  1  0  0  0  0
844852  4  0  0  0  0
850852  4  0  0  0  0
846853  1  0  0  0  0
853854  1  0  0  0  0
855856  1  0  0  0  0
856857  4  0  0  0  0
853858  1  0  0  0  0
857858  1  0  0  0  0
858859  1  0  0  0  0
858860  1  0  0  0  0
857861  4  0  0  0  0
861862  1  0  0  0  0
863864  4  0  0  0  0
864865  1  0  0  0  0
864866  4  0  0  0  0
866867  1  0  0  0  0
866868  4  0  0  0  0
868869  4  0  0  0  0
869870  1  0  0  0  0
863871  4  0  0  0  0
869871  4  0  0  0  0
871872  1  0  0  0  0
873874  1  0  0  0  0
873875  1  0  0  0  0
873876  1  0  0  0  0
852879  1  0  0  0  0
853879  1  0  0  0  0
855879  1  0  0  0  0
856880  4  0  0  0  0
863880  1  0  0  0  0
861881  4  0  0  0  0
880881  4  0  0  0  0
862882  4  0  0  0  0
877882  1  0  0  0  0
878882  1  0  0  0  0
855883  2  0  0  0  0
862884  2  0  0  0  0
868885  1  0  0  0  0
873885  1  0  0  0  0
M  END
