 xtb: 6.7.1pre (5071a88)
          10032619143D

118126  0     0  0            999 V2000
   25.9132   39.0966   43.4089 C   0  0  0  0  0  0  0  0  0  0  0  0
   26.6074   38.4799   43.1255 H   0  0  0  0  0  0  0  0  0  0  0  0
   26.3441   39.9292   43.6573 H   0  0  0  0  0  0  0  0  0  0  0  0
   25.2456   38.5408   44.5924 C   0  0  0  0  0  0  0  0  0  0  0  0
   24.8061   39.2620   45.0716 H   0  0  0  0  0  0  0  0  0  0  0  0
   25.9156   38.1616   45.1817 H   0  0  0  0  0  0  0  0  0  0  0  0
   24.2491   37.5041   44.2726 C   0  0  0  0  0  0  0  0  0  0  0  0
   23.7915   37.2383   45.0858 H   0  0  0  0  0  0  0  0  0  0  0  0
   24.7027   36.7234   43.9169 H   0  0  0  0  0  0  0  0  0  0  0  0
   23.2464   37.9869   43.2783 C   0  0  0  0  0  0  0  0  0  0  0  0
   22.5928   38.5311   43.7438 H   0  0  0  0  0  0  0  0  0  0  0  0
   22.7791   37.2175   42.9178 H   0  0  0  0  0  0  0  0  0  0  0  0
   23.7959   38.7846   42.1345 C   0  0  0  0  0  0  0  0  0  0  0  0
   26.6326   39.6860   40.4690 C   0  0  0  0  0  0  0  0  0  0  0  0
   27.0445   38.8827   40.6949 H   0  0  0  0  0  0  0  0  0  0  0  0
   25.5454   40.1278   41.1915 C   0  0  0  0  0  0  0  0  0  0  0  0
   24.9577   41.3271   40.8605 C   0  0  0  0  0  0  0  0  0  0  0  0
   27.1119   40.4324   39.4119 C   0  0  0  0  0  0  0  0  0  0  0  0
   27.8550   40.1382   38.9360 H   0  0  0  0  0  0  0  0  0  0  0  0
   26.7690   40.7390   36.6863 H   0  0  0  0  0  0  0  0  0  0  0  0
   25.0158   39.3495   42.2750 N   0  0  0  0  0  0  0  0  0  0  0  0
   23.1411   38.9261   41.1055 O   0  0  0  0  0  0  0  0  0  0  0  0
   24.2425   41.6443   41.3635 H   0  0  0  0  0  0  0  0  0  0  0  0
   25.4201   42.0595   39.7929 C   0  0  0  0  0  0  0  0  0  0  0  0
   25.0058   42.8610   39.5669 H   0  0  0  0  0  0  0  0  0  0  0  0
   26.4918   41.6115   39.0596 C   0  0  0  0  0  0  0  0  0  0  0  0
   26.7031   41.7021   36.5901 C   0  0  0  0  0  0  0  0  0  0  0  0
   25.8062   41.9114   36.2867 H   0  0  0  0  0  0  0  0  0  0  0  0
   27.1653   43.6806   38.0130 C   0  0  0  0  0  0  0  0  0  0  0  0
   27.3771   44.3265   36.7078 C   0  0  0  0  0  0  0  0  0  0  0  0
   27.7070   43.6565   35.5644 C   0  0  0  0  0  0  0  0  0  0  0  0
   27.7021   42.1679   35.5482 C   0  0  0  0  0  0  0  0  0  0  0  0
   28.5868   41.8284   35.7565 H   0  0  0  0  0  0  0  0  0  0  0  0
   27.4465   41.8436   34.6710 H   0  0  0  0  0  0  0  0  0  0  0  0
   27.9897   44.6556   34.6321 C   0  0  0  0  0  0  0  0  0  0  0  0
   28.4607   44.4820   33.2399 C   0  0  0  0  0  0  0  0  0  0  0  0
   27.1605   46.7800   37.2759 C   0  0  0  0  0  0  0  0  0  0  0  0
   26.0615   46.7322   38.1036 C   0  0  0  0  0  0  0  0  0  0  0  0
   25.5072   45.9852   38.0975 H   0  0  0  0  0  0  0  0  0  0  0  0
   25.7823   47.7912   38.9406 C   0  0  0  0  0  0  0  0  0  0  0  0
   25.0419   47.7584   39.5008 H   0  0  0  0  0  0  0  0  0  0  0  0
   26.5987   48.8959   38.9456 C   0  0  0  0  0  0  0  0  0  0  0  0
   27.6781   48.9552   38.0816 C   0  0  0  0  0  0  0  0  0  0  0  0
   28.2124   49.7156   38.0628 H   0  0  0  0  0  0  0  0  0  0  0  0
   27.9654   47.9023   37.2531 C   0  0  0  0  0  0  0  0  0  0  0  0
   28.6970   47.9425   36.6800 H   0  0  0  0  0  0  0  0  0  0  0  0
   25.4272   49.8642   40.7619 C   0  0  0  0  0  0  0  0  0  0  0  0
   25.4446   50.6458   41.3194 H   0  0  0  0  0  0  0  0  0  0  0  0
   25.5847   49.0844   41.2990 H   0  0  0  0  0  0  0  0  0  0  0  0
   24.5677   49.7932   40.3393 H   0  0  0  0  0  0  0  0  0  0  0  0
   28.6866   45.5325   31.6456 H   0  0  0  0  0  0  0  0  0  0  0  0
   28.0476   46.2426   32.7500 H   0  0  0  0  0  0  0  0  0  0  0  0
   26.9316   42.3368   37.9013 N   0  0  0  0  0  0  0  0  0  0  0  0
   27.4666   45.6626   36.4407 N   0  0  0  0  0  0  0  0  0  0  0  0
   27.8276   45.8753   35.1579 N   0  0  0  0  0  0  0  0  0  0  0  0
   28.4206   45.5681   32.4738 N   0  0  0  0  0  0  0  0  0  0  0  0
   27.2785   44.2510   39.0787 O   0  0  0  0  0  0  0  0  0  0  0  0
   28.8837   43.3985   32.8751 O   0  0  0  0  0  0  0  0  0  0  0  0
   26.4345   49.9674   39.7709 O   0  0  0  0  0  0  0  0  0  0  0  0
   15.6924   25.2544   43.4089 C   0  0  0  0  0  0  0  0  0  0  0  0
   16.3866   24.6377   43.1255 H   0  0  0  0  0  0  0  0  0  0  0  0
   16.1233   26.0870   43.6573 H   0  0  0  0  0  0  0  0  0  0  0  0
   15.0248   24.6986   44.5924 C   0  0  0  0  0  0  0  0  0  0  0  0
   14.5853   25.4198   45.0716 H   0  0  0  0  0  0  0  0  0  0  0  0
   15.6948   24.3194   45.1817 H   0  0  0  0  0  0  0  0  0  0  0  0
   14.0283   23.6619   44.2726 C   0  0  0  0  0  0  0  0  0  0  0  0
   13.5707   23.3961   45.0858 H   0  0  0  0  0  0  0  0  0  0  0  0
   14.4819   22.8812   43.9169 H   0  0  0  0  0  0  0  0  0  0  0  0
   13.0256   24.1447   43.2783 C   0  0  0  0  0  0  0  0  0  0  0  0
   12.3720   24.6889   43.7438 H   0  0  0  0  0  0  0  0  0  0  0  0
   12.5583   23.3753   42.9178 H   0  0  0  0  0  0  0  0  0  0  0  0
   13.5751   24.9424   42.1345 C   0  0  0  0  0  0  0  0  0  0  0  0
   16.4118   25.8438   40.4690 C   0  0  0  0  0  0  0  0  0  0  0  0
   16.8237   25.0405   40.6949 H   0  0  0  0  0  0  0  0  0  0  0  0
   15.3246   26.2856   41.1915 C   0  0  0  0  0  0  0  0  0  0  0  0
   14.7369   27.4849   40.8605 C   0  0  0  0  0  0  0  0  0  0  0  0
   16.8911   26.5902   39.4119 C   0  0  0  0  0  0  0  0  0  0  0  0
   17.6342   26.2960   38.9360 H   0  0  0  0  0  0  0  0  0  0  0  0
   16.5482   26.8968   36.6863 H   0  0  0  0  0  0  0  0  0  0  0  0
   14.7950   25.5073   42.2750 N   0  0  0  0  0  0  0  0  0  0  0  0
   12.9203   25.0839   41.1055 O   0  0  0  0  0  0  0  0  0  0  0  0
   14.0217   27.8021   41.3635 H   0  0  0  0  0  0  0  0  0  0  0  0
   15.1993   28.2173   39.7929 C   0  0  0  0  0  0  0  0  0  0  0  0
   14.7850   29.0188   39.5669 H   0  0  0  0  0  0  0  0  0  0  0  0
   16.2710   27.7693   39.0596 C   0  0  0  0  0  0  0  0  0  0  0  0
   16.4823   27.8599   36.5901 C   0  0  0  0  0  0  0  0  0  0  0  0
   15.5854   28.0692   36.2867 H   0  0  0  0  0  0  0  0  0  0  0  0
   16.9445   29.8384   38.0130 C   0  0  0  0  0  0  0  0  0  0  0  0
   17.1563   30.4843   36.7078 C   0  0  0  0  0  0  0  0  0  0  0  0
   17.4862   29.8143   35.5644 C   0  0  0  0  0  0  0  0  0  0  0  0
   17.4813   28.3257   35.5482 C   0  0  0  0  0  0  0  0  0  0  0  0
   18.3660   27.9862   35.7565 H   0  0  0  0  0  0  0  0  0  0  0  0
   17.2257   28.0014   34.6710 H   0  0  0  0  0  0  0  0  0  0  0  0
   17.7689   30.8134   34.6321 C   0  0  0  0  0  0  0  0  0  0  0  0
   18.2399   30.6398   33.2399 C   0  0  0  0  0  0  0  0  0  0  0  0
   16.9397   32.9378   37.2759 C   0  0  0  0  0  0  0  0  0  0  0  0
   15.8407   32.8900   38.1036 C   0  0  0  0  0  0  0  0  0  0  0  0
   15.2864   32.1430   38.0975 H   0  0  0  0  0  0  0  0  0  0  0  0
   15.5615   33.9490   38.9406 C   0  0  0  0  0  0  0  0  0  0  0  0
   14.8211   33.9162   39.5008 H   0  0  0  0  0  0  0  0  0  0  0  0
   16.3779   35.0537   38.9456 C   0  0  0  0  0  0  0  0  0  0  0  0
   17.4573   35.1130   38.0816 C   0  0  0  0  0  0  0  0  0  0  0  0
   17.9916   35.8734   38.0628 H   0  0  0  0  0  0  0  0  0  0  0  0
   17.7446   34.0601   37.2531 C   0  0  0  0  0  0  0  0  0  0  0  0
   18.4762   34.1003   36.6800 H   0  0  0  0  0  0  0  0  0  0  0  0
   15.2064   36.0220   40.7619 C   0  0  0  0  0  0  0  0  0  0  0  0
   15.2238   36.8036   41.3194 H   0  0  0  0  0  0  0  0  0  0  0  0
   15.3639   35.2422   41.2990 H   0  0  0  0  0  0  0  0  0  0  0  0
   14.3469   35.9510   40.3393 H   0  0  0  0  0  0  0  0  0  0  0  0
   18.4658   31.6903   31.6456 H   0  0  0  0  0  0  0  0  0  0  0  0
   17.8268   32.4004   32.7500 H   0  0  0  0  0  0  0  0  0  0  0  0
   16.7108   28.4946   37.9013 N   0  0  0  0  0  0  0  0  0  0  0  0
   17.2458   31.8204   36.4407 N   0  0  0  0  0  0  0  0  0  0  0  0
   17.6068   32.0331   35.1579 N   0  0  0  0  0  0  0  0  0  0  0  0
   18.1998   31.7259   32.4738 N   0  0  0  0  0  0  0  0  0  0  0  0
   17.0577   30.4088   39.0787 O   0  0  0  0  0  0  0  0  0  0  0  0
   18.6629   29.5563   32.8751 O   0  0  0  0  0  0  0  0  0  0  0  0
   16.2137   36.1252   39.7709 O   0  0  0  0  0  0  0  0  0  0  0  0
  1  2  1  0  0  0  0
  1  3  1  0  0  0  0
  1  4  1  0  0  0  0
  4  5  1  0  0  0  0
  4  6  1  0  0  0  0
  4  7  1  0  0  0  0
  7  8  1  0  0  0  0
  7  9  1  0  0  0  0
  7 10  1  0  0  0  0
 10 11  1  0  0  0  0
 10 12  1  0  0  0  0
 10 13  1  0  0  0  0
 14 15  1  0  0  0  0
 14 16  4  0  0  0  0
 16 17  4  0  0  0  0
 14 18  4  0  0  0  0
 18 19  1  0  0  0  0
  1 21  1  0  0  0  0
 13 21  4  0  0  0  0
 16 21  1  0  0  0  0
 13 22  2  0  0  0  0
 17 23  1  0  0  0  0
 17 24  4  0  0  0  0
 24 25  1  0  0  0  0
 18 26  4  0  0  0  0
 24 26  4  0  0  0  0
 20 27  1  0  0  0  0
 27 28  1  0  0  0  0
 29 30  1  0  0  0  0
 30 31  4  0  0  0  0
 27 32  1  0  0  0  0
 31 32  1  0  0  0  0
 32 33  1  0  0  0  0
 32 34  1  0  0  0  0
 31 35  4  0  0  0  0
 35 36  1  0  0  0  0
 37 38  4  0  0  0  0
 38 39  1  0  0  0  0
 38 40  4  0  0  0  0
 40 41  1  0  0  0  0
 40 42  4  0  0  0  0
 42 43  4  0  0  0  0
 43 44  1  0  0  0  0
 37 45  4  0  0  0  0
 43 45  4  0  0  0  0
 45 46  1  0  0  0  0
 47 48  1  0  0  0  0
 47 49  1  0  0  0  0
 47 50  1  0  0  0  0
 26 53  1  0  0  0  0
 27 53  1  0  0  0  0
 29 53  4  0  0  0  0
 30 54  4  0  0  0  0
 37 54  1  0  0  0  0
 35 55  4  0  0  0  0
 54 55  4  0  0  0  0
 36 56  4  0  0  0  0
 51 56  1  0  0  0  0
 52 56  1  0  0  0  0
 29 57  2  0  0  0  0
 36 58  2  0  0  0  0
 42 59  1  0  0  0  0
 47 59  1  0  0  0  0
 60 61  1  0  0  0  0
 60 62  1  0  0  0  0
 60 63  1  0  0  0  0
 63 64  1  0  0  0  0
 63 65  1  0  0  0  0
 63 66  1  0  0  0  0
 66 67  1  0  0  0  0
 66 68  1  0  0  0  0
 66 69  1  0  0  0  0
 69 70  1  0  0  0  0
 69 71  1  0  0  0  0
 69 72  1  0  0  0  0
 73 74  1  0  0  0  0
 73 75  4  0  0  0  0
 75 76  4  0  0  0  0
 73 77  4  0  0  0  0
 77 78  1  0  0  0  0
 60 80  1  0  0  0  0
 72 80  4  0  0  0  0
 75 80  1  0  0  0  0
 72 81  2  0  0  0  0
 76 82  1  0  0  0  0
 76 83  4  0  0  0  0
 83 84  1  0  0  0  0
 77 85  4  0  0  0  0
 83 85  4  0  0  0  0
 79 86  1  0  0  0  0
 86 87  1  0  0  0  0
 88 89  1  0  0  0  0
 89 90  4  0  0  0  0
 86 91  1  0  0  0  0
 90 91  1  0  0  0  0
 91 92  1  0  0  0  0
 91 93  1  0  0  0  0
 90 94  4  0  0  0  0
 94 95  1  0  0  0  0
 96 97  4  0  0  0  0
 97 98  1  0  0  0  0
 97 99  4  0  0  0  0
 99100  1  0  0  0  0
 99101  4  0  0  0  0
101102  4  0  0  0  0
102103  1  0  0  0  0
 96104  4  0  0  0  0
102104  4  0  0  0  0
104105  1  0  0  0  0
106107  1  0  0  0  0
106108  1  0  0  0  0
106109  1  0  0  0  0
 85112  1  0  0  0  0
 86112  1  0  0  0  0
 88112  4  0  0  0  0
 89113  4  0  0  0  0
 96113  1  0  0  0  0
 94114  4  0  0  0  0
113114  4  0  0  0  0
 95115  4  0  0  0  0
110115  1  0  0  0  0
111115  1  0  0  0  0
 88116  2  0  0  0  0
 95117  2  0  0  0  0
101118  1  0  0  0  0
106118  1  0  0  0  0
M  END
