 xtb: 6.7.1pre (5071a88)
          10032618563D

 59 63  0     0  0            999 V2000
   26.6814   46.0177   27.3867 C   0  0  0  0  0  0  0  0  0  0  0  0
   25.9872   45.4010   27.6701 H   0  0  0  0  0  0  0  0  0  0  0  0
   26.2505   46.8503   27.1383 H   0  0  0  0  0  0  0  0  0  0  0  0
   27.3490   45.4619   26.2032 C   0  0  0  0  0  0  0  0  0  0  0  0
   27.7885   46.1831   25.7240 H   0  0  0  0  0  0  0  0  0  0  0  0
   26.6790   45.0827   25.6138 H   0  0  0  0  0  0  0  0  0  0  0  0
   28.3455   44.4252   26.5230 C   0  0  0  0  0  0  0  0  0  0  0  0
   28.8031   44.1594   25.7098 H   0  0  0  0  0  0  0  0  0  0  0  0
   27.8919   43.6445   26.8787 H   0  0  0  0  0  0  0  0  0  0  0  0
   28.7988   45.7057   28.6610 C   0  0  0  0  0  0  0  0  0  0  0  0
   25.9620   46.6071   30.3266 C   0  0  0  0  0  0  0  0  0  0  0  0
   25.5502   45.8038   30.1007 H   0  0  0  0  0  0  0  0  0  0  0  0
   27.0492   47.0489   29.6040 C   0  0  0  0  0  0  0  0  0  0  0  0
   27.6369   48.2482   29.9350 C   0  0  0  0  0  0  0  0  0  0  0  0
   28.3521   48.5654   29.4321 H   0  0  0  0  0  0  0  0  0  0  0  0
   27.1745   48.9806   31.0026 C   0  0  0  0  0  0  0  0  0  0  0  0
   27.5888   49.7821   31.2287 H   0  0  0  0  0  0  0  0  0  0  0  0
   25.4827   47.3535   31.3837 C   0  0  0  0  0  0  0  0  0  0  0  0
   27.5527   54.6795   31.2948 H   0  0  0  0  0  0  0  0  0  0  0  0
   27.5788   46.2706   28.5205 N   0  0  0  0  0  0  0  0  0  0  0  0
   26.1028   48.5326   31.7359 C   0  0  0  0  0  0  0  0  0  0  0  0
   24.7397   47.0593   31.8596 H   0  0  0  0  0  0  0  0  0  0  0  0
   25.8915   48.6232   34.2054 C   0  0  0  0  0  0  0  0  0  0  0  0
   26.7884   48.8325   34.5089 H   0  0  0  0  0  0  0  0  0  0  0  0
   25.8256   47.6601   34.1093 H   0  0  0  0  0  0  0  0  0  0  0  0
   25.4293   50.6017   32.7826 C   0  0  0  0  0  0  0  0  0  0  0  0
   25.2175   51.2476   34.0878 C   0  0  0  0  0  0  0  0  0  0  0  0
   24.8876   50.5776   35.2312 C   0  0  0  0  0  0  0  0  0  0  0  0
   24.8925   49.0890   35.2474 C   0  0  0  0  0  0  0  0  0  0  0  0
   24.0078   48.7495   35.0391 H   0  0  0  0  0  0  0  0  0  0  0  0
   25.1481   48.7647   36.1246 H   0  0  0  0  0  0  0  0  0  0  0  0
   24.6049   51.5767   36.1635 C   0  0  0  0  0  0  0  0  0  0  0  0
   24.1339   51.4031   37.5556 C   0  0  0  0  0  0  0  0  0  0  0  0
   25.4341   53.7011   33.5197 C   0  0  0  0  0  0  0  0  0  0  0  0
   26.5331   53.6533   32.6920 C   0  0  0  0  0  0  0  0  0  0  0  0
   27.0874   52.9063   32.6981 H   0  0  0  0  0  0  0  0  0  0  0  0
   26.8123   54.7123   31.8550 C   0  0  0  0  0  0  0  0  0  0  0  0
   24.6292   54.8234   33.5425 C   0  0  0  0  0  0  0  0  0  0  0  0
   23.8976   54.8636   34.1156 H   0  0  0  0  0  0  0  0  0  0  0  0
   23.9080   52.4536   39.1500 H   0  0  0  0  0  0  0  0  0  0  0  0
   24.5470   53.1637   38.0455 H   0  0  0  0  0  0  0  0  0  0  0  0
   25.6630   49.2579   32.8943 N   0  0  0  0  0  0  0  0  0  0  0  0
   25.1280   52.5837   34.3549 N   0  0  0  0  0  0  0  0  0  0  0  0
   24.7670   52.7964   35.6377 N   0  0  0  0  0  0  0  0  0  0  0  0
   24.1740   52.4892   38.3218 N   0  0  0  0  0  0  0  0  0  0  0  0
   25.3161   51.1721   31.7169 O   0  0  0  0  0  0  0  0  0  0  0  0
   23.7109   50.3196   37.9205 O   0  0  0  0  0  0  0  0  0  0  0  0
   27.1674   56.7853   30.0337 C   0  0  0  0  0  0  0  0  0  0  0  0
   27.1500   57.5669   29.4761 H   0  0  0  0  0  0  0  0  0  0  0  0
   27.0099   56.0055   29.4966 H   0  0  0  0  0  0  0  0  0  0  0  0
   28.0269   56.7143   30.4563 H   0  0  0  0  0  0  0  0  0  0  0  0
   26.1601   56.8885   31.0247 O   0  0  0  0  0  0  0  0  0  0  0  0
   25.9959   55.8170   31.8500 C   0  0  0  0  0  0  0  0  0  0  0  0
   24.9165   55.8763   32.7140 C   0  0  0  0  0  0  0  0  0  0  0  0
   24.3823   56.6367   32.7327 H   0  0  0  0  0  0  0  0  0  0  0  0
   29.3482   44.9080   27.5173 C   0  0  0  0  0  0  0  0  0  0  0  0
   30.0018   45.4522   27.0518 H   0  0  0  0  0  0  0  0  0  0  0  0
   29.8155   44.1386   27.8777 H   0  0  0  0  0  0  0  0  0  0  0  0
   29.4535   45.8472   29.6901 O   0  0  0  0  0  0  0  0  0  0  0  0
  1  2  1  0  0  0  0
  1  3  1  0  0  0  0
  1  4  1  0  0  0  0
  4  5  1  0  0  0  0
  4  6  1  0  0  0  0
  4  7  1  0  0  0  0
  7  8  1  0  0  0  0
  7  9  1  0  0  0  0
 11 12  1  0  0  0  0
 11 13  4  0  0  0  0
 13 14  4  0  0  0  0
 14 15  1  0  0  0  0
 14 16  4  0  0  0  0
 16 17  1  0  0  0  0
 11 18  4  0  0  0  0
  1 20  1  0  0  0  0
 10 20  4  0  0  0  0
 13 20  1  0  0  0  0
 16 21  4  0  0  0  0
 18 21  4  0  0  0  0
 18 22  1  0  0  0  0
 23 24  1  0  0  0  0
 23 25  1  0  0  0  0
 26 27  1  0  0  0  0
 27 28  4  0  0  0  0
 23 29  1  0  0  0  0
 28 29  1  0  0  0  0
 29 30  1  0  0  0  0
 29 31  1  0  0  0  0
 28 32  4  0  0  0  0
 32 33  1  0  0  0  0
 34 35  4  0  0  0  0
 35 36  1  0  0  0  0
 19 37  1  0  0  0  0
 35 37  4  0  0  0  0
 34 38  4  0  0  0  0
 38 39  1  0  0  0  0
 21 42  1  0  0  0  0
 23 42  1  0  0  0  0
 26 42  4  0  0  0  0
 27 43  4  0  0  0  0
 34 43  1  0  0  0  0
 32 44  4  0  0  0  0
 43 44  4  0  0  0  0
 33 45  4  0  0  0  0
 40 45  1  0  0  0  0
 41 45  1  0  0  0  0
 26 46  2  0  0  0  0
 33 47  2  0  0  0  0
 48 49  1  0  0  0  0
 48 50  1  0  0  0  0
 48 51  1  0  0  0  0
 48 52  1  0  0  0  0
 37 53  4  0  0  0  0
 52 53  1  0  0  0  0
 38 54  4  0  0  0  0
 53 54  4  0  0  0  0
 54 55  1  0  0  0  0
  7 56  1  0  0  0  0
 10 56  1  0  0  0  0
 56 57  1  0  0  0  0
 56 58  1  0  0  0  0
 10 59  2  0  0  0  0
M  END
