 xtb: 6.7.1pre (5071a88)
          10032618553D

 59 63  0     0  0            999 V2000
   15.6924   39.0966   43.4089 C   0  0  0  0  0  0  0  0  0  0  0  0
   16.3866   38.4799   43.1255 H   0  0  0  0  0  0  0  0  0  0  0  0
   16.1233   39.9292   43.6573 H   0  0  0  0  0  0  0  0  0  0  0  0
   15.0248   38.5408   44.5924 C   0  0  0  0  0  0  0  0  0  0  0  0
   14.5853   39.2620   45.0716 H   0  0  0  0  0  0  0  0  0  0  0  0
   15.6948   38.1616   45.1817 H   0  0  0  0  0  0  0  0  0  0  0  0
   14.0283   37.5041   44.2726 C   0  0  0  0  0  0  0  0  0  0  0  0
   13.5707   37.2383   45.0858 H   0  0  0  0  0  0  0  0  0  0  0  0
   14.4819   36.7234   43.9169 H   0  0  0  0  0  0  0  0  0  0  0  0
   13.0256   37.9869   43.2783 C   0  0  0  0  0  0  0  0  0  0  0  0
   12.3720   38.5311   43.7438 H   0  0  0  0  0  0  0  0  0  0  0  0
   12.5583   37.2175   42.9178 H   0  0  0  0  0  0  0  0  0  0  0  0
   13.5751   38.7846   42.1345 C   0  0  0  0  0  0  0  0  0  0  0  0
   16.4118   39.6860   40.4690 C   0  0  0  0  0  0  0  0  0  0  0  0
   16.8237   38.8827   40.6949 H   0  0  0  0  0  0  0  0  0  0  0  0
   15.3246   40.1278   41.1915 C   0  0  0  0  0  0  0  0  0  0  0  0
   14.7369   41.3271   40.8605 C   0  0  0  0  0  0  0  0  0  0  0  0
   16.8911   40.4324   39.4119 C   0  0  0  0  0  0  0  0  0  0  0  0
   17.6342   40.1382   38.9360 H   0  0  0  0  0  0  0  0  0  0  0  0
   16.5482   40.7390   36.6863 H   0  0  0  0  0  0  0  0  0  0  0  0
   14.7950   39.3495   42.2750 N   0  0  0  0  0  0  0  0  0  0  0  0
   12.9203   38.9261   41.1055 O   0  0  0  0  0  0  0  0  0  0  0  0
   14.0217   41.6443   41.3635 H   0  0  0  0  0  0  0  0  0  0  0  0
   15.1993   42.0595   39.7929 C   0  0  0  0  0  0  0  0  0  0  0  0
   14.7850   42.8610   39.5669 H   0  0  0  0  0  0  0  0  0  0  0  0
   16.2710   41.6115   39.0596 C   0  0  0  0  0  0  0  0  0  0  0  0
   16.4823   41.7021   36.5901 C   0  0  0  0  0  0  0  0  0  0  0  0
   15.5854   41.9114   36.2867 H   0  0  0  0  0  0  0  0  0  0  0  0
   16.9445   43.6806   38.0130 C   0  0  0  0  0  0  0  0  0  0  0  0
   17.1563   44.3265   36.7078 C   0  0  0  0  0  0  0  0  0  0  0  0
   17.4862   43.6565   35.5644 C   0  0  0  0  0  0  0  0  0  0  0  0
   17.4813   42.1679   35.5482 C   0  0  0  0  0  0  0  0  0  0  0  0
   18.3660   41.8284   35.7565 H   0  0  0  0  0  0  0  0  0  0  0  0
   17.2257   41.8436   34.6710 H   0  0  0  0  0  0  0  0  0  0  0  0
   17.7689   44.6556   34.6321 C   0  0  0  0  0  0  0  0  0  0  0  0
   18.2399   44.4820   33.2399 C   0  0  0  0  0  0  0  0  0  0  0  0
   16.9397   46.7800   37.2759 C   0  0  0  0  0  0  0  0  0  0  0  0
   15.8407   46.7322   38.1036 C   0  0  0  0  0  0  0  0  0  0  0  0
   15.2864   45.9852   38.0975 H   0  0  0  0  0  0  0  0  0  0  0  0
   15.5615   47.7912   38.9406 C   0  0  0  0  0  0  0  0  0  0  0  0
   14.8211   47.7584   39.5008 H   0  0  0  0  0  0  0  0  0  0  0  0
   16.3779   48.8959   38.9456 C   0  0  0  0  0  0  0  0  0  0  0  0
   17.4573   48.9552   38.0816 C   0  0  0  0  0  0  0  0  0  0  0  0
   17.9916   49.7156   38.0628 H   0  0  0  0  0  0  0  0  0  0  0  0
   17.7446   47.9023   37.2531 C   0  0  0  0  0  0  0  0  0  0  0  0
   18.4762   47.9425   36.6800 H   0  0  0  0  0  0  0  0  0  0  0  0
   15.2064   49.8642   40.7619 C   0  0  0  0  0  0  0  0  0  0  0  0
   15.2238   50.6458   41.3194 H   0  0  0  0  0  0  0  0  0  0  0  0
   15.3639   49.0844   41.2990 H   0  0  0  0  0  0  0  0  0  0  0  0
   14.3469   49.7932   40.3393 H   0  0  0  0  0  0  0  0  0  0  0  0
   18.4658   45.5325   31.6456 H   0  0  0  0  0  0  0  0  0  0  0  0
   17.8268   46.2426   32.7500 H   0  0  0  0  0  0  0  0  0  0  0  0
   16.7108   42.3368   37.9013 N   0  0  0  0  0  0  0  0  0  0  0  0
   17.2458   45.6626   36.4407 N   0  0  0  0  0  0  0  0  0  0  0  0
   17.6068   45.8753   35.1579 N   0  0  0  0  0  0  0  0  0  0  0  0
   18.1998   45.5681   32.4738 N   0  0  0  0  0  0  0  0  0  0  0  0
   17.0577   44.2510   39.0787 O   0  0  0  0  0  0  0  0  0  0  0  0
   18.6629   43.3985   32.8751 O   0  0  0  0  0  0  0  0  0  0  0  0
   16.2137   49.9674   39.7709 O   0  0  0  0  0  0  0  0  0  0  0  0
  1  2  1  0  0  0  0
  1  3  1  0  0  0  0
  1  4  1  0  0  0  0
  4  5  1  0  0  0  0
  4  6  1  0  0  0  0
  4  7  1  0  0  0  0
  7  8  1  0  0  0  0
  7  9  1  0  0  0  0
  7 10  1  0  0  0  0
 10 11  1  0  0  0  0
 10 12  1  0  0  0  0
 10 13  1  0  0  0  0
 14 15  1  0  0  0  0
 14 16  4  0  0  0  0
 16 17  4  0  0  0  0
 14 18  4  0  0  0  0
 18 19  1  0  0  0  0
  1 21  1  0  0  0  0
 13 21  4  0  0  0  0
 16 21  1  0  0  0  0
 13 22  2  0  0  0  0
 17 23  1  0  0  0  0
 17 24  4  0  0  0  0
 24 25  1  0  0  0  0
 18 26  4  0  0  0  0
 24 26  4  0  0  0  0
 20 27  1  0  0  0  0
 27 28  1  0  0  0  0
 29 30  1  0  0  0  0
 30 31  4  0  0  0  0
 27 32  1  0  0  0  0
 31 32  1  0  0  0  0
 32 33  1  0  0  0  0
 32 34  1  0  0  0  0
 31 35  4  0  0  0  0
 35 36  1  0  0  0  0
 37 38  4  0  0  0  0
 38 39  1  0  0  0  0
 38 40  4  0  0  0  0
 40 41  1  0  0  0  0
 40 42  4  0  0  0  0
 42 43  4  0  0  0  0
 43 44  1  0  0  0  0
 37 45  4  0  0  0  0
 43 45  4  0  0  0  0
 45 46  1  0  0  0  0
 47 48  1  0  0  0  0
 47 49  1  0  0  0  0
 47 50  1  0  0  0  0
 26 53  1  0  0  0  0
 27 53  1  0  0  0  0
 29 53  4  0  0  0  0
 30 54  4  0  0  0  0
 37 54  1  0  0  0  0
 35 55  4  0  0  0  0
 54 55  4  0  0  0  0
 36 56  4  0  0  0  0
 51 56  1  0  0  0  0
 52 56  1  0  0  0  0
 29 57  2  0  0  0  0
 36 58  2  0  0  0  0
 42 59  1  0  0  0  0
 47 59  1  0  0  0  0
M  END
