 xtb: 6.7.1pre (5071a88)
          10032619143D

 59 63  0     0  0            999 V2000
   26.6814   32.1755   27.3867 C   0  0  0  0  0  0  0  0  0  0  0  0
   25.9872   31.5588   27.6701 H   0  0  0  0  0  0  0  0  0  0  0  0
   26.2505   33.0081   27.1383 H   0  0  0  0  0  0  0  0  0  0  0  0
   27.3490   31.6197   26.2032 C   0  0  0  0  0  0  0  0  0  0  0  0
   27.7885   32.3409   25.7240 H   0  0  0  0  0  0  0  0  0  0  0  0
   26.6790   31.2405   25.6138 H   0  0  0  0  0  0  0  0  0  0  0  0
   28.3455   30.5830   26.5230 C   0  0  0  0  0  0  0  0  0  0  0  0
   28.8031   30.3172   25.7098 H   0  0  0  0  0  0  0  0  0  0  0  0
   27.8919   29.8023   26.8787 H   0  0  0  0  0  0  0  0  0  0  0  0
   28.7988   31.8635   28.6610 C   0  0  0  0  0  0  0  0  0  0  0  0
   25.9620   32.7649   30.3266 C   0  0  0  0  0  0  0  0  0  0  0  0
   25.5502   31.9616   30.1007 H   0  0  0  0  0  0  0  0  0  0  0  0
   27.0492   33.2067   29.6040 C   0  0  0  0  0  0  0  0  0  0  0  0
   27.6369   34.4060   29.9350 C   0  0  0  0  0  0  0  0  0  0  0  0
   28.3521   34.7232   29.4321 H   0  0  0  0  0  0  0  0  0  0  0  0
   27.1745   35.1384   31.0026 C   0  0  0  0  0  0  0  0  0  0  0  0
   27.5888   35.9399   31.2287 H   0  0  0  0  0  0  0  0  0  0  0  0
   25.4827   33.5113   31.3837 C   0  0  0  0  0  0  0  0  0  0  0  0
   27.5527   40.8373   31.2948 H   0  0  0  0  0  0  0  0  0  0  0  0
   27.5788   32.4284   28.5205 N   0  0  0  0  0  0  0  0  0  0  0  0
   26.1028   34.6904   31.7359 C   0  0  0  0  0  0  0  0  0  0  0  0
   24.7397   33.2171   31.8596 H   0  0  0  0  0  0  0  0  0  0  0  0
   25.8915   34.7810   34.2054 C   0  0  0  0  0  0  0  0  0  0  0  0
   26.7884   34.9903   34.5089 H   0  0  0  0  0  0  0  0  0  0  0  0
   25.8256   33.8179   34.1093 H   0  0  0  0  0  0  0  0  0  0  0  0
   25.4293   36.7595   32.7826 C   0  0  0  0  0  0  0  0  0  0  0  0
   25.2175   37.4054   34.0878 C   0  0  0  0  0  0  0  0  0  0  0  0
   24.8876   36.7354   35.2312 C   0  0  0  0  0  0  0  0  0  0  0  0
   24.8925   35.2468   35.2474 C   0  0  0  0  0  0  0  0  0  0  0  0
   24.0078   34.9073   35.0391 H   0  0  0  0  0  0  0  0  0  0  0  0
   25.1481   34.9225   36.1246 H   0  0  0  0  0  0  0  0  0  0  0  0
   24.6049   37.7345   36.1635 C   0  0  0  0  0  0  0  0  0  0  0  0
   24.1339   37.5609   37.5556 C   0  0  0  0  0  0  0  0  0  0  0  0
   25.4341   39.8589   33.5197 C   0  0  0  0  0  0  0  0  0  0  0  0
   26.5331   39.8111   32.6920 C   0  0  0  0  0  0  0  0  0  0  0  0
   27.0874   39.0641   32.6981 H   0  0  0  0  0  0  0  0  0  0  0  0
   26.8123   40.8701   31.8550 C   0  0  0  0  0  0  0  0  0  0  0  0
   24.6292   40.9812   33.5425 C   0  0  0  0  0  0  0  0  0  0  0  0
   23.8976   41.0214   34.1156 H   0  0  0  0  0  0  0  0  0  0  0  0
   23.9080   38.6114   39.1500 H   0  0  0  0  0  0  0  0  0  0  0  0
   24.5470   39.3215   38.0455 H   0  0  0  0  0  0  0  0  0  0  0  0
   25.6630   35.4157   32.8943 N   0  0  0  0  0  0  0  0  0  0  0  0
   25.1280   38.7415   34.3549 N   0  0  0  0  0  0  0  0  0  0  0  0
   24.7670   38.9542   35.6377 N   0  0  0  0  0  0  0  0  0  0  0  0
   24.1740   38.6470   38.3218 N   0  0  0  0  0  0  0  0  0  0  0  0
   25.3161   37.3299   31.7169 O   0  0  0  0  0  0  0  0  0  0  0  0
   23.7109   36.4774   37.9205 O   0  0  0  0  0  0  0  0  0  0  0  0
   27.1674   42.9431   30.0337 C   0  0  0  0  0  0  0  0  0  0  0  0
   27.1500   43.7247   29.4761 H   0  0  0  0  0  0  0  0  0  0  0  0
   27.0099   42.1633   29.4966 H   0  0  0  0  0  0  0  0  0  0  0  0
   28.0269   42.8721   30.4563 H   0  0  0  0  0  0  0  0  0  0  0  0
   26.1601   43.0463   31.0247 O   0  0  0  0  0  0  0  0  0  0  0  0
   25.9959   41.9748   31.8500 C   0  0  0  0  0  0  0  0  0  0  0  0
   24.9165   42.0341   32.7140 C   0  0  0  0  0  0  0  0  0  0  0  0
   24.3823   42.7945   32.7327 H   0  0  0  0  0  0  0  0  0  0  0  0
   29.3482   31.0658   27.5173 C   0  0  0  0  0  0  0  0  0  0  0  0
   30.0018   31.6100   27.0518 H   0  0  0  0  0  0  0  0  0  0  0  0
   29.8155   30.2964   27.8777 H   0  0  0  0  0  0  0  0  0  0  0  0
   29.4535   32.0050   29.6901 O   0  0  0  0  0  0  0  0  0  0  0  0
  1  2  1  0  0  0  0
  1  3  1  0  0  0  0
  1  4  1  0  0  0  0
  4  5  1  0  0  0  0
  4  6  1  0  0  0  0
  4  7  1  0  0  0  0
  7  8  1  0  0  0  0
  7  9  1  0  0  0  0
 11 12  1  0  0  0  0
 11 13  4  0  0  0  0
 13 14  4  0  0  0  0
 14 15  1  0  0  0  0
 14 16  4  0  0  0  0
 16 17  1  0  0  0  0
 11 18  4  0  0  0  0
  1 20  1  0  0  0  0
 10 20  4  0  0  0  0
 13 20  1  0  0  0  0
 16 21  4  0  0  0  0
 18 21  4  0  0  0  0
 18 22  1  0  0  0  0
 23 24  1  0  0  0  0
 23 25  1  0  0  0  0
 26 27  1  0  0  0  0
 27 28  4  0  0  0  0
 23 29  1  0  0  0  0
 28 29  1  0  0  0  0
 29 30  1  0  0  0  0
 29 31  1  0  0  0  0
 28 32  4  0  0  0  0
 32 33  1  0  0  0  0
 34 35  4  0  0  0  0
 35 36  1  0  0  0  0
 19 37  1  0  0  0  0
 35 37  4  0  0  0  0
 34 38  4  0  0  0  0
 38 39  1  0  0  0  0
 21 42  1  0  0  0  0
 23 42  1  0  0  0  0
 26 42  4  0  0  0  0
 27 43  4  0  0  0  0
 34 43  1  0  0  0  0
 32 44  4  0  0  0  0
 43 44  4  0  0  0  0
 33 45  4  0  0  0  0
 40 45  1  0  0  0  0
 41 45  1  0  0  0  0
 26 46  2  0  0  0  0
 33 47  2  0  0  0  0
 48 49  1  0  0  0  0
 48 50  1  0  0  0  0
 48 51  1  0  0  0  0
 48 52  1  0  0  0  0
 37 53  4  0  0  0  0
 52 53  1  0  0  0  0
 38 54  4  0  0  0  0
 53 54  4  0  0  0  0
 54 55  1  0  0  0  0
  7 56  1  0  0  0  0
 10 56  1  0  0  0  0
 56 57  1  0  0  0  0
 56 58  1  0  0  0  0
 10 59  2  0  0  0  0
M  END
