 xtb: 6.7.1pre (5071a88)
          10032619143D

118126  0     0  0            999 V2000
   22.8395   41.4089   37.2983 H   0  0  0  0  0  0  0  0  0  0  0  0
   21.6619   40.9937   38.8688 C   0  0  0  0  0  0  0  0  0  0  0  0
   22.0762   40.1922   39.0949 H   0  0  0  0  0  0  0  0  0  0  0  0
   20.5902   41.4417   39.6021 C   0  0  0  0  0  0  0  0  0  0  0  0
   20.3789   41.3511   42.0716 C   0  0  0  0  0  0  0  0  0  0  0  0
   21.2758   41.1418   42.3751 H   0  0  0  0  0  0  0  0  0  0  0  0
   19.9167   39.3726   40.6488 C   0  0  0  0  0  0  0  0  0  0  0  0
   19.7049   38.7267   41.9539 C   0  0  0  0  0  0  0  0  0  0  0  0
   19.3750   39.3967   43.0974 C   0  0  0  0  0  0  0  0  0  0  0  0
   19.3799   40.8853   43.1136 C   0  0  0  0  0  0  0  0  0  0  0  0
   18.4952   41.2248   42.9053 H   0  0  0  0  0  0  0  0  0  0  0  0
   19.6355   41.2096   43.9908 H   0  0  0  0  0  0  0  0  0  0  0  0
   19.0923   38.3976   44.0297 C   0  0  0  0  0  0  0  0  0  0  0  0
   18.6213   38.5712   45.4218 C   0  0  0  0  0  0  0  0  0  0  0  0
   19.9215   36.2732   41.3858 C   0  0  0  0  0  0  0  0  0  0  0  0
   21.0205   36.3210   40.5582 C   0  0  0  0  0  0  0  0  0  0  0  0
   21.5748   37.0680   40.5643 H   0  0  0  0  0  0  0  0  0  0  0  0
   21.2997   35.2620   39.7212 C   0  0  0  0  0  0  0  0  0  0  0  0
   22.0401   35.2948   39.1610 H   0  0  0  0  0  0  0  0  0  0  0  0
   20.4833   34.1573   39.7162 C   0  0  0  0  0  0  0  0  0  0  0  0
   19.4039   34.0980   40.5802 C   0  0  0  0  0  0  0  0  0  0  0  0
   18.8697   33.3376   40.5989 H   0  0  0  0  0  0  0  0  0  0  0  0
   19.1166   35.1509   41.4086 C   0  0  0  0  0  0  0  0  0  0  0  0
   18.3850   35.1107   41.9818 H   0  0  0  0  0  0  0  0  0  0  0  0
   21.6548   33.1890   37.8999 C   0  0  0  0  0  0  0  0  0  0  0  0
   21.6374   32.4074   37.3423 H   0  0  0  0  0  0  0  0  0  0  0  0
   21.4973   33.9688   37.3628 H   0  0  0  0  0  0  0  0  0  0  0  0
   22.5143   33.2600   38.3224 H   0  0  0  0  0  0  0  0  0  0  0  0
   18.3954   37.5207   47.0161 H   0  0  0  0  0  0  0  0  0  0  0  0
   19.0344   36.8106   45.9117 H   0  0  0  0  0  0  0  0  0  0  0  0
   20.1504   40.7164   40.7605 N   0  0  0  0  0  0  0  0  0  0  0  0
   19.6154   37.3906   42.2211 N   0  0  0  0  0  0  0  0  0  0  0  0
   19.2544   37.1779   43.5039 N   0  0  0  0  0  0  0  0  0  0  0  0
   18.6614   37.4851   46.1880 N   0  0  0  0  0  0  0  0  0  0  0  0
   19.8035   38.8022   39.5831 O   0  0  0  0  0  0  0  0  0  0  0  0
   18.1983   39.6547   45.7866 O   0  0  0  0  0  0  0  0  0  0  0  0
   20.6475   33.0858   38.8908 O   0  0  0  0  0  0  0  0  0  0  0  0
   21.1688   43.9566   35.2529 C   0  0  0  0  0  0  0  0  0  0  0  0
   20.4746   44.5733   35.5362 H   0  0  0  0  0  0  0  0  0  0  0  0
   20.7379   43.1240   35.0045 H   0  0  0  0  0  0  0  0  0  0  0  0
   21.8364   44.5124   34.0693 C   0  0  0  0  0  0  0  0  0  0  0  0
   22.2759   43.7912   33.5901 H   0  0  0  0  0  0  0  0  0  0  0  0
   21.1664   44.8916   33.4800 H   0  0  0  0  0  0  0  0  0  0  0  0
   22.8329   45.5491   34.3892 C   0  0  0  0  0  0  0  0  0  0  0  0
   23.2905   45.8149   33.5760 H   0  0  0  0  0  0  0  0  0  0  0  0
   22.3793   46.3298   34.7449 H   0  0  0  0  0  0  0  0  0  0  0  0
   23.8356   45.0663   35.3835 C   0  0  0  0  0  0  0  0  0  0  0  0
   24.4892   44.5221   34.9179 H   0  0  0  0  0  0  0  0  0  0  0  0
   24.3029   45.8357   35.7439 H   0  0  0  0  0  0  0  0  0  0  0  0
   23.2862   44.2686   36.5272 C   0  0  0  0  0  0  0  0  0  0  0  0
   20.4494   43.3672   38.1928 C   0  0  0  0  0  0  0  0  0  0  0  0
   20.0376   44.1705   37.9669 H   0  0  0  0  0  0  0  0  0  0  0  0
   21.5366   42.9254   37.4702 C   0  0  0  0  0  0  0  0  0  0  0  0
   22.1243   41.7261   37.8012 C   0  0  0  0  0  0  0  0  0  0  0  0
   19.9701   42.6208   39.2499 C   0  0  0  0  0  0  0  0  0  0  0  0
   19.2271   42.9150   39.7258 H   0  0  0  0  0  0  0  0  0  0  0  0
   20.3130   42.3142   41.9755 H   0  0  0  0  0  0  0  0  0  0  0  0
   22.0662   43.7037   36.3867 N   0  0  0  0  0  0  0  0  0  0  0  0
   23.9409   44.1271   37.5563 O   0  0  0  0  0  0  0  0  0  0  0  0
   26.6814   46.0177   27.3867 C   0  0  0  0  0  0  0  0  0  0  0  0
   25.9872   45.4010   27.6701 H   0  0  0  0  0  0  0  0  0  0  0  0
   26.2505   46.8503   27.1383 H   0  0  0  0  0  0  0  0  0  0  0  0
   27.3490   45.4619   26.2032 C   0  0  0  0  0  0  0  0  0  0  0  0
   27.7885   46.1831   25.7240 H   0  0  0  0  0  0  0  0  0  0  0  0
   26.6790   45.0827   25.6138 H   0  0  0  0  0  0  0  0  0  0  0  0
   28.3455   44.4252   26.5230 C   0  0  0  0  0  0  0  0  0  0  0  0
   28.8031   44.1594   25.7098 H   0  0  0  0  0  0  0  0  0  0  0  0
   27.8919   43.6445   26.8787 H   0  0  0  0  0  0  0  0  0  0  0  0
   28.7988   45.7057   28.6610 C   0  0  0  0  0  0  0  0  0  0  0  0
   25.9620   46.6071   30.3266 C   0  0  0  0  0  0  0  0  0  0  0  0
   25.5502   45.8038   30.1007 H   0  0  0  0  0  0  0  0  0  0  0  0
   27.0492   47.0489   29.6040 C   0  0  0  0  0  0  0  0  0  0  0  0
   27.6369   48.2482   29.9350 C   0  0  0  0  0  0  0  0  0  0  0  0
   28.3521   48.5654   29.4321 H   0  0  0  0  0  0  0  0  0  0  0  0
   27.1745   48.9806   31.0026 C   0  0  0  0  0  0  0  0  0  0  0  0
   27.5888   49.7821   31.2287 H   0  0  0  0  0  0  0  0  0  0  0  0
   25.4827   47.3535   31.3837 C   0  0  0  0  0  0  0  0  0  0  0  0
   27.5527   54.6795   31.2948 H   0  0  0  0  0  0  0  0  0  0  0  0
   27.5788   46.2706   28.5205 N   0  0  0  0  0  0  0  0  0  0  0  0
   26.1028   48.5326   31.7359 C   0  0  0  0  0  0  0  0  0  0  0  0
   24.7397   47.0593   31.8596 H   0  0  0  0  0  0  0  0  0  0  0  0
   25.8915   48.6232   34.2054 C   0  0  0  0  0  0  0  0  0  0  0  0
   26.7884   48.8325   34.5089 H   0  0  0  0  0  0  0  0  0  0  0  0
   25.8256   47.6601   34.1093 H   0  0  0  0  0  0  0  0  0  0  0  0
   25.4293   50.6017   32.7826 C   0  0  0  0  0  0  0  0  0  0  0  0
   25.2175   51.2476   34.0878 C   0  0  0  0  0  0  0  0  0  0  0  0
   24.8876   50.5776   35.2312 C   0  0  0  0  0  0  0  0  0  0  0  0
   24.8925   49.0890   35.2474 C   0  0  0  0  0  0  0  0  0  0  0  0
   24.0078   48.7495   35.0391 H   0  0  0  0  0  0  0  0  0  0  0  0
   25.1481   48.7647   36.1246 H   0  0  0  0  0  0  0  0  0  0  0  0
   24.6049   51.5767   36.1635 C   0  0  0  0  0  0  0  0  0  0  0  0
   24.1339   51.4031   37.5556 C   0  0  0  0  0  0  0  0  0  0  0  0
   25.4341   53.7011   33.5197 C   0  0  0  0  0  0  0  0  0  0  0  0
   26.5331   53.6533   32.6920 C   0  0  0  0  0  0  0  0  0  0  0  0
   27.0874   52.9063   32.6981 H   0  0  0  0  0  0  0  0  0  0  0  0
   26.8123   54.7123   31.8550 C   0  0  0  0  0  0  0  0  0  0  0  0
   24.6292   54.8234   33.5425 C   0  0  0  0  0  0  0  0  0  0  0  0
   23.8976   54.8636   34.1156 H   0  0  0  0  0  0  0  0  0  0  0  0
   23.9080   52.4536   39.1500 H   0  0  0  0  0  0  0  0  0  0  0  0
   24.5470   53.1637   38.0455 H   0  0  0  0  0  0  0  0  0  0  0  0
   25.6630   49.2579   32.8943 N   0  0  0  0  0  0  0  0  0  0  0  0
   25.1280   52.5837   34.3549 N   0  0  0  0  0  0  0  0  0  0  0  0
   24.7670   52.7964   35.6377 N   0  0  0  0  0  0  0  0  0  0  0  0
   24.1740   52.4892   38.3218 N   0  0  0  0  0  0  0  0  0  0  0  0
   25.3161   51.1721   31.7169 O   0  0  0  0  0  0  0  0  0  0  0  0
   23.7109   50.3196   37.9205 O   0  0  0  0  0  0  0  0  0  0  0  0
   27.1674   56.7853   30.0337 C   0  0  0  0  0  0  0  0  0  0  0  0
   27.1500   57.5669   29.4761 H   0  0  0  0  0  0  0  0  0  0  0  0
   27.0099   56.0055   29.4966 H   0  0  0  0  0  0  0  0  0  0  0  0
   28.0269   56.7143   30.4563 H   0  0  0  0  0  0  0  0  0  0  0  0
   26.1601   56.8885   31.0247 O   0  0  0  0  0  0  0  0  0  0  0  0
   25.9959   55.8170   31.8500 C   0  0  0  0  0  0  0  0  0  0  0  0
   24.9165   55.8763   32.7140 C   0  0  0  0  0  0  0  0  0  0  0  0
   24.3823   56.6367   32.7327 H   0  0  0  0  0  0  0  0  0  0  0  0
   29.3482   44.9080   27.5173 C   0  0  0  0  0  0  0  0  0  0  0  0
   30.0018   45.4522   27.0518 H   0  0  0  0  0  0  0  0  0  0  0  0
   29.8155   44.1386   27.8777 H   0  0  0  0  0  0  0  0  0  0  0  0
   29.4535   45.8472   29.6901 O   0  0  0  0  0  0  0  0  0  0  0  0
  2  3  1  0  0  0  0
  2  4  4  0  0  0  0
  5  6  1  0  0  0  0
  7  8  1  0  0  0  0
  8  9  4  0  0  0  0
  5 10  1  0  0  0  0
  9 10  1  0  0  0  0
 10 11  1  0  0  0  0
 10 12  1  0  0  0  0
  9 13  4  0  0  0  0
 13 14  1  0  0  0  0
 15 16  4  0  0  0  0
 16 17  1  0  0  0  0
 16 18  4  0  0  0  0
 18 19  1  0  0  0  0
 18 20  4  0  0  0  0
 20 21  4  0  0  0  0
 21 22  1  0  0  0  0
 15 23  4  0  0  0  0
 21 23  4  0  0  0  0
 23 24  1  0  0  0  0
 25 26  1  0  0  0  0
 25 27  1  0  0  0  0
 25 28  1  0  0  0  0
  4 31  1  0  0  0  0
  5 31  1  0  0  0  0
  7 31  4  0  0  0  0
  8 32  4  0  0  0  0
 15 32  1  0  0  0  0
 13 33  4  0  0  0  0
 32 33  4  0  0  0  0
 14 34  4  0  0  0  0
 29 34  1  0  0  0  0
 30 34  1  0  0  0  0
  7 35  2  0  0  0  0
 14 36  2  0  0  0  0
 20 37  1  0  0  0  0
 25 37  1  0  0  0  0
 38 39  1  0  0  0  0
 38 40  1  0  0  0  0
 38 41  1  0  0  0  0
 41 42  1  0  0  0  0
 41 43  1  0  0  0  0
 41 44  1  0  0  0  0
 44 45  1  0  0  0  0
 44 46  1  0  0  0  0
 44 47  1  0  0  0  0
 47 48  1  0  0  0  0
 47 49  1  0  0  0  0
 47 50  1  0  0  0  0
 51 52  1  0  0  0  0
 51 53  4  0  0  0  0
  1 54  1  0  0  0  0
  2 54  4  0  0  0  0
 53 54  4  0  0  0  0
  4 55  4  0  0  0  0
 51 55  4  0  0  0  0
 55 56  1  0  0  0  0
  5 57  1  0  0  0  0
 38 58  1  0  0  0  0
 50 58  4  0  0  0  0
 53 58  1  0  0  0  0
 50 59  2  0  0  0  0
 60 61  1  0  0  0  0
 60 62  1  0  0  0  0
 60 63  1  0  0  0  0
 63 64  1  0  0  0  0
 63 65  1  0  0  0  0
 63 66  1  0  0  0  0
 66 67  1  0  0  0  0
 66 68  1  0  0  0  0
 70 71  1  0  0  0  0
 70 72  4  0  0  0  0
 72 73  4  0  0  0  0
 73 74  1  0  0  0  0
 73 75  4  0  0  0  0
 75 76  1  0  0  0  0
 70 77  4  0  0  0  0
 60 79  1  0  0  0  0
 69 79  4  0  0  0  0
 72 79  1  0  0  0  0
 75 80  4  0  0  0  0
 77 80  4  0  0  0  0
 77 81  1  0  0  0  0
 82 83  1  0  0  0  0
 82 84  1  0  0  0  0
 85 86  1  0  0  0  0
 86 87  4  0  0  0  0
 82 88  1  0  0  0  0
 87 88  1  0  0  0  0
 88 89  1  0  0  0  0
 88 90  1  0  0  0  0
 87 91  4  0  0  0  0
 91 92  1  0  0  0  0
 93 94  4  0  0  0  0
 94 95  1  0  0  0  0
 78 96  1  0  0  0  0
 94 96  4  0  0  0  0
 93 97  4  0  0  0  0
 97 98  1  0  0  0  0
 80101  1  0  0  0  0
 82101  1  0  0  0  0
 85101  1  0  0  0  0
 86102  4  0  0  0  0
 93102  1  0  0  0  0
 91103  4  0  0  0  0
102103  4  0  0  0  0
 92104  4  0  0  0  0
 99104  1  0  0  0  0
100104  1  0  0  0  0
 85105  2  0  0  0  0
 92106  2  0  0  0  0
107108  1  0  0  0  0
107109  1  0  0  0  0
107110  1  0  0  0  0
107111  1  0  0  0  0
 96112  4  0  0  0  0
111112  1  0  0  0  0
 97113  4  0  0  0  0
112113  4  0  0  0  0
113114  1  0  0  0  0
 66115  1  0  0  0  0
 69115  1  0  0  0  0
115116  1  0  0  0  0
115117  1  0  0  0  0
 69118  2  0  0  0  0
M  END
