 xtb: 6.7.1pre (5071a88)
          10032618563D

118126  0     0  0            999 V2000
   25.9132   25.2544   43.4089 C   0  0  0  0  0  0  0  0  0  0  0  0
   26.6074   24.6377   43.1255 H   0  0  0  0  0  0  0  0  0  0  0  0
   26.3441   26.0870   43.6573 H   0  0  0  0  0  0  0  0  0  0  0  0
   25.2456   24.6986   44.5924 C   0  0  0  0  0  0  0  0  0  0  0  0
   24.8061   25.4198   45.0716 H   0  0  0  0  0  0  0  0  0  0  0  0
   25.9156   24.3194   45.1817 H   0  0  0  0  0  0  0  0  0  0  0  0
   24.2491   23.6619   44.2726 C   0  0  0  0  0  0  0  0  0  0  0  0
   23.7915   23.3961   45.0858 H   0  0  0  0  0  0  0  0  0  0  0  0
   24.7027   22.8812   43.9169 H   0  0  0  0  0  0  0  0  0  0  0  0
   23.2464   24.1447   43.2783 C   0  0  0  0  0  0  0  0  0  0  0  0
   22.5928   24.6889   43.7438 H   0  0  0  0  0  0  0  0  0  0  0  0
   22.7791   23.3753   42.9178 H   0  0  0  0  0  0  0  0  0  0  0  0
   23.7959   24.9424   42.1345 C   0  0  0  0  0  0  0  0  0  0  0  0
   26.6326   25.8438   40.4690 C   0  0  0  0  0  0  0  0  0  0  0  0
   27.0445   25.0405   40.6949 H   0  0  0  0  0  0  0  0  0  0  0  0
   25.5454   26.2856   41.1915 C   0  0  0  0  0  0  0  0  0  0  0  0
   24.9577   27.4849   40.8605 C   0  0  0  0  0  0  0  0  0  0  0  0
   27.1119   26.5902   39.4119 C   0  0  0  0  0  0  0  0  0  0  0  0
   27.8550   26.2960   38.9360 H   0  0  0  0  0  0  0  0  0  0  0  0
   26.7690   26.8968   36.6863 H   0  0  0  0  0  0  0  0  0  0  0  0
   25.0158   25.5073   42.2750 N   0  0  0  0  0  0  0  0  0  0  0  0
   23.1411   25.0839   41.1055 O   0  0  0  0  0  0  0  0  0  0  0  0
   24.2425   27.8021   41.3635 H   0  0  0  0  0  0  0  0  0  0  0  0
   25.4201   28.2173   39.7929 C   0  0  0  0  0  0  0  0  0  0  0  0
   25.0058   29.0188   39.5669 H   0  0  0  0  0  0  0  0  0  0  0  0
   26.4918   27.7693   39.0596 C   0  0  0  0  0  0  0  0  0  0  0  0
   26.7031   27.8599   36.5901 C   0  0  0  0  0  0  0  0  0  0  0  0
   25.8062   28.0692   36.2867 H   0  0  0  0  0  0  0  0  0  0  0  0
   27.1653   29.8384   38.0130 C   0  0  0  0  0  0  0  0  0  0  0  0
   27.3771   30.4843   36.7078 C   0  0  0  0  0  0  0  0  0  0  0  0
   27.7070   29.8143   35.5644 C   0  0  0  0  0  0  0  0  0  0  0  0
   27.7021   28.3257   35.5482 C   0  0  0  0  0  0  0  0  0  0  0  0
   28.5868   27.9862   35.7565 H   0  0  0  0  0  0  0  0  0  0  0  0
   27.4465   28.0014   34.6710 H   0  0  0  0  0  0  0  0  0  0  0  0
   27.9897   30.8134   34.6321 C   0  0  0  0  0  0  0  0  0  0  0  0
   28.4607   30.6398   33.2399 C   0  0  0  0  0  0  0  0  0  0  0  0
   27.1605   32.9378   37.2759 C   0  0  0  0  0  0  0  0  0  0  0  0
   26.0615   32.8900   38.1036 C   0  0  0  0  0  0  0  0  0  0  0  0
   25.5072   32.1430   38.0975 H   0  0  0  0  0  0  0  0  0  0  0  0
   25.7823   33.9490   38.9406 C   0  0  0  0  0  0  0  0  0  0  0  0
   25.0419   33.9162   39.5008 H   0  0  0  0  0  0  0  0  0  0  0  0
   26.5987   35.0537   38.9456 C   0  0  0  0  0  0  0  0  0  0  0  0
   27.6781   35.1130   38.0816 C   0  0  0  0  0  0  0  0  0  0  0  0
   28.2124   35.8734   38.0628 H   0  0  0  0  0  0  0  0  0  0  0  0
   27.9654   34.0601   37.2531 C   0  0  0  0  0  0  0  0  0  0  0  0
   28.6970   34.1003   36.6800 H   0  0  0  0  0  0  0  0  0  0  0  0
   25.4272   36.0220   40.7619 C   0  0  0  0  0  0  0  0  0  0  0  0
   25.4446   36.8036   41.3194 H   0  0  0  0  0  0  0  0  0  0  0  0
   25.5847   35.2422   41.2990 H   0  0  0  0  0  0  0  0  0  0  0  0
   24.5677   35.9510   40.3393 H   0  0  0  0  0  0  0  0  0  0  0  0
   28.6866   31.6903   31.6456 H   0  0  0  0  0  0  0  0  0  0  0  0
   28.0476   32.4004   32.7500 H   0  0  0  0  0  0  0  0  0  0  0  0
   26.9316   28.4946   37.9013 N   0  0  0  0  0  0  0  0  0  0  0  0
   27.4666   31.8204   36.4407 N   0  0  0  0  0  0  0  0  0  0  0  0
   27.8276   32.0331   35.1579 N   0  0  0  0  0  0  0  0  0  0  0  0
   28.4206   31.7259   32.4738 N   0  0  0  0  0  0  0  0  0  0  0  0
   27.2785   30.4088   39.0787 O   0  0  0  0  0  0  0  0  0  0  0  0
   28.8837   29.5563   32.8751 O   0  0  0  0  0  0  0  0  0  0  0  0
   26.4345   36.1252   39.7709 O   0  0  0  0  0  0  0  0  0  0  0  0
   15.6562   32.1755   43.1191 C   0  0  0  0  0  0  0  0  0  0  0  0
   14.9620   31.5588   43.4024 H   0  0  0  0  0  0  0  0  0  0  0  0
   15.2253   33.0081   42.8707 H   0  0  0  0  0  0  0  0  0  0  0  0
   16.3238   31.6197   41.9355 C   0  0  0  0  0  0  0  0  0  0  0  0
   16.7633   32.3409   41.4563 H   0  0  0  0  0  0  0  0  0  0  0  0
   15.6538   31.2405   41.3462 H   0  0  0  0  0  0  0  0  0  0  0  0
   17.3203   30.5830   42.2554 C   0  0  0  0  0  0  0  0  0  0  0  0
   17.7779   30.3172   41.4422 H   0  0  0  0  0  0  0  0  0  0  0  0
   16.8667   29.8023   42.6111 H   0  0  0  0  0  0  0  0  0  0  0  0
   17.7736   31.8635   44.3934 C   0  0  0  0  0  0  0  0  0  0  0  0
   14.9368   32.7649   46.0590 C   0  0  0  0  0  0  0  0  0  0  0  0
   14.5250   31.9616   45.8331 H   0  0  0  0  0  0  0  0  0  0  0  0
   16.0240   33.2067   45.3364 C   0  0  0  0  0  0  0  0  0  0  0  0
   16.6117   34.4060   45.6674 C   0  0  0  0  0  0  0  0  0  0  0  0
   17.3269   34.7232   45.1644 H   0  0  0  0  0  0  0  0  0  0  0  0
   16.1493   35.1384   46.7350 C   0  0  0  0  0  0  0  0  0  0  0  0
   16.5636   35.9399   46.9611 H   0  0  0  0  0  0  0  0  0  0  0  0
   14.4575   33.5113   47.1160 C   0  0  0  0  0  0  0  0  0  0  0  0
   16.5275   40.8373   47.0271 H   0  0  0  0  0  0  0  0  0  0  0  0
   16.5536   32.4284   44.2529 N   0  0  0  0  0  0  0  0  0  0  0  0
   15.0776   34.6904   47.4683 C   0  0  0  0  0  0  0  0  0  0  0  0
   13.7145   33.2171   47.5919 H   0  0  0  0  0  0  0  0  0  0  0  0
   14.8663   34.7810   49.9378 C   0  0  0  0  0  0  0  0  0  0  0  0
   15.7632   34.9903   50.2413 H   0  0  0  0  0  0  0  0  0  0  0  0
   14.8004   33.8179   49.8417 H   0  0  0  0  0  0  0  0  0  0  0  0
   14.4041   36.7595   48.5149 C   0  0  0  0  0  0  0  0  0  0  0  0
   14.1923   37.4054   49.8201 C   0  0  0  0  0  0  0  0  0  0  0  0
   13.8624   36.7354   50.9635 C   0  0  0  0  0  0  0  0  0  0  0  0
   13.8673   35.2468   50.9797 C   0  0  0  0  0  0  0  0  0  0  0  0
   12.9826   34.9073   50.7714 H   0  0  0  0  0  0  0  0  0  0  0  0
   14.1229   34.9225   51.8570 H   0  0  0  0  0  0  0  0  0  0  0  0
   13.5797   37.7345   51.8958 C   0  0  0  0  0  0  0  0  0  0  0  0
   13.1087   37.5609   53.2880 C   0  0  0  0  0  0  0  0  0  0  0  0
   14.4089   39.8589   49.2520 C   0  0  0  0  0  0  0  0  0  0  0  0
   15.5079   39.8111   48.4243 C   0  0  0  0  0  0  0  0  0  0  0  0
   16.0622   39.0641   48.4305 H   0  0  0  0  0  0  0  0  0  0  0  0
   15.7871   40.8701   47.5874 C   0  0  0  0  0  0  0  0  0  0  0  0
   13.6040   40.9812   49.2748 C   0  0  0  0  0  0  0  0  0  0  0  0
   12.8724   41.0214   49.8479 H   0  0  0  0  0  0  0  0  0  0  0  0
   12.8828   38.6114   54.8823 H   0  0  0  0  0  0  0  0  0  0  0  0
   13.5218   39.3215   53.7779 H   0  0  0  0  0  0  0  0  0  0  0  0
   14.6378   35.4157   48.6266 N   0  0  0  0  0  0  0  0  0  0  0  0
   14.1028   38.7415   50.0872 N   0  0  0  0  0  0  0  0  0  0  0  0
   13.7418   38.9542   51.3701 N   0  0  0  0  0  0  0  0  0  0  0  0
   13.1488   38.6470   54.0541 N   0  0  0  0  0  0  0  0  0  0  0  0
   14.2909   37.3299   47.4492 O   0  0  0  0  0  0  0  0  0  0  0  0
   12.6857   36.4774   53.6528 O   0  0  0  0  0  0  0  0  0  0  0  0
   16.1422   42.9431   45.7660 C   0  0  0  0  0  0  0  0  0  0  0  0
   16.1248   43.7247   45.2085 H   0  0  0  0  0  0  0  0  0  0  0  0
   15.9847   42.1633   45.2289 H   0  0  0  0  0  0  0  0  0  0  0  0
   17.0017   42.8721   46.1886 H   0  0  0  0  0  0  0  0  0  0  0  0
   15.1349   43.0463   46.7570 O   0  0  0  0  0  0  0  0  0  0  0  0
   14.9707   41.9748   47.5823 C   0  0  0  0  0  0  0  0  0  0  0  0
   13.8913   42.0341   48.4464 C   0  0  0  0  0  0  0  0  0  0  0  0
   13.3571   42.7945   48.4651 H   0  0  0  0  0  0  0  0  0  0  0  0
   18.3230   31.0658   43.2496 C   0  0  0  0  0  0  0  0  0  0  0  0
   18.9766   31.6100   42.7841 H   0  0  0  0  0  0  0  0  0  0  0  0
   18.7903   30.2964   43.6101 H   0  0  0  0  0  0  0  0  0  0  0  0
   18.4283   32.0050   45.4224 O   0  0  0  0  0  0  0  0  0  0  0  0
  1  2  1  0  0  0  0
  1  3  1  0  0  0  0
  1  4  1  0  0  0  0
  4  5  1  0  0  0  0
  4  6  1  0  0  0  0
  4  7  1  0  0  0  0
  7  8  1  0  0  0  0
  7  9  1  0  0  0  0
  7 10  1  0  0  0  0
 10 11  1  0  0  0  0
 10 12  1  0  0  0  0
 10 13  1  0  0  0  0
 14 15  1  0  0  0  0
 14 16  4  0  0  0  0
 16 17  4  0  0  0  0
 14 18  4  0  0  0  0
 18 19  1  0  0  0  0
  1 21  1  0  0  0  0
 13 21  4  0  0  0  0
 16 21  1  0  0  0  0
 13 22  2  0  0  0  0
 17 23  1  0  0  0  0
 17 24  4  0  0  0  0
 24 25  1  0  0  0  0
 18 26  4  0  0  0  0
 24 26  4  0  0  0  0
 20 27  1  0  0  0  0
 27 28  1  0  0  0  0
 29 30  1  0  0  0  0
 30 31  4  0  0  0  0
 27 32  1  0  0  0  0
 31 32  1  0  0  0  0
 32 33  1  0  0  0  0
 32 34  1  0  0  0  0
 31 35  4  0  0  0  0
 35 36  1  0  0  0  0
 37 38  4  0  0  0  0
 38 39  1  0  0  0  0
 38 40  4  0  0  0  0
 40 41  1  0  0  0  0
 40 42  4  0  0  0  0
 42 43  4  0  0  0  0
 43 44  1  0  0  0  0
 37 45  4  0  0  0  0
 43 45  4  0  0  0  0
 45 46  1  0  0  0  0
 47 48  1  0  0  0  0
 47 49  1  0  0  0  0
 47 50  1  0  0  0  0
 26 53  1  0  0  0  0
 27 53  1  0  0  0  0
 29 53  4  0  0  0  0
 30 54  4  0  0  0  0
 37 54  1  0  0  0  0
 35 55  4  0  0  0  0
 54 55  4  0  0  0  0
 36 56  4  0  0  0  0
 51 56  1  0  0  0  0
 52 56  1  0  0  0  0
 29 57  2  0  0  0  0
 36 58  2  0  0  0  0
 42 59  1  0  0  0  0
 47 59  1  0  0  0  0
 60 61  1  0  0  0  0
 60 62  1  0  0  0  0
 60 63  1  0  0  0  0
 63 64  1  0  0  0  0
 63 65  1  0  0  0  0
 63 66  1  0  0  0  0
 66 67  1  0  0  0  0
 66 68  1  0  0  0  0
 70 71  1  0  0  0  0
 70 72  4  0  0  0  0
 72 73  4  0  0  0  0
 73 74  1  0  0  0  0
 73 75  4  0  0  0  0
 75 76  1  0  0  0  0
 70 77  4  0  0  0  0
 60 79  1  0  0  0  0
 69 79  4  0  0  0  0
 72 79  1  0  0  0  0
 75 80  4  0  0  0  0
 77 80  4  0  0  0  0
 77 81  1  0  0  0  0
 82 83  1  0  0  0  0
 82 84  1  0  0  0  0
 85 86  1  0  0  0  0
 86 87  4  0  0  0  0
 82 88  1  0  0  0  0
 87 88  1  0  0  0  0
 88 89  1  0  0  0  0
 88 90  1  0  0  0  0
 87 91  4  0  0  0  0
 91 92  1  0  0  0  0
 93 94  4  0  0  0  0
 94 95  1  0  0  0  0
 78 96  1  0  0  0  0
 94 96  4  0  0  0  0
 93 97  4  0  0  0  0
 97 98  1  0  0  0  0
 80101  1  0  0  0  0
 82101  1  0  0  0  0
 85101  4  0  0  0  0
 86102  4  0  0  0  0
 93102  1  0  0  0  0
 91103  4  0  0  0  0
102103  4  0  0  0  0
 92104  4  0  0  0  0
 99104  1  0  0  0  0
100104  1  0  0  0  0
 85105  2  0  0  0  0
 92106  2  0  0  0  0
107108  1  0  0  0  0
107109  1  0  0  0  0
107110  1  0  0  0  0
107111  1  0  0  0  0
 96112  4  0  0  0  0
111112  1  0  0  0  0
 97113  4  0  0  0  0
112113  4  0  0  0  0
113114  1  0  0  0  0
 66115  1  0  0  0  0
 69115  1  0  0  0  0
115116  1  0  0  0  0
115117  1  0  0  0  0
 69118  2  0  0  0  0
M  END
