 xtb: 6.7.1pre (5071a88)
          10032619143D

118126  0     0  0            999 V2000
   25.9132   39.0966   43.4089 C   0  0  0  0  0  0  0  0  0  0  0  0
   26.6074   38.4799   43.1255 H   0  0  0  0  0  0  0  0  0  0  0  0
   26.3441   39.9292   43.6573 H   0  0  0  0  0  0  0  0  0  0  0  0
   25.2456   38.5408   44.5924 C   0  0  0  0  0  0  0  0  0  0  0  0
   24.8061   39.2620   45.0716 H   0  0  0  0  0  0  0  0  0  0  0  0
   25.9156   38.1616   45.1817 H   0  0  0  0  0  0  0  0  0  0  0  0
   24.2491   37.5041   44.2726 C   0  0  0  0  0  0  0  0  0  0  0  0
   23.7915   37.2383   45.0858 H   0  0  0  0  0  0  0  0  0  0  0  0
   24.7027   36.7234   43.9169 H   0  0  0  0  0  0  0  0  0  0  0  0
   23.2464   37.9869   43.2783 C   0  0  0  0  0  0  0  0  0  0  0  0
   22.5928   38.5311   43.7438 H   0  0  0  0  0  0  0  0  0  0  0  0
   22.7791   37.2175   42.9178 H   0  0  0  0  0  0  0  0  0  0  0  0
   23.7959   38.7846   42.1345 C   0  0  0  0  0  0  0  0  0  0  0  0
   26.6326   39.6860   40.4690 C   0  0  0  0  0  0  0  0  0  0  0  0
   27.0445   38.8827   40.6949 H   0  0  0  0  0  0  0  0  0  0  0  0
   25.5454   40.1278   41.1915 C   0  0  0  0  0  0  0  0  0  0  0  0
   24.9577   41.3271   40.8605 C   0  0  0  0  0  0  0  0  0  0  0  0
   27.1119   40.4324   39.4119 C   0  0  0  0  0  0  0  0  0  0  0  0
   27.8550   40.1382   38.9360 H   0  0  0  0  0  0  0  0  0  0  0  0
   26.7690   40.7390   36.6863 H   0  0  0  0  0  0  0  0  0  0  0  0
   25.0158   39.3495   42.2750 N   0  0  0  0  0  0  0  0  0  0  0  0
   23.1411   38.9261   41.1055 O   0  0  0  0  0  0  0  0  0  0  0  0
   24.2425   41.6443   41.3635 H   0  0  0  0  0  0  0  0  0  0  0  0
   25.4201   42.0595   39.7929 C   0  0  0  0  0  0  0  0  0  0  0  0
   25.0058   42.8610   39.5669 H   0  0  0  0  0  0  0  0  0  0  0  0
   26.4918   41.6115   39.0596 C   0  0  0  0  0  0  0  0  0  0  0  0
   26.7031   41.7021   36.5901 C   0  0  0  0  0  0  0  0  0  0  0  0
   25.8062   41.9114   36.2867 H   0  0  0  0  0  0  0  0  0  0  0  0
   27.1653   43.6806   38.0130 C   0  0  0  0  0  0  0  0  0  0  0  0
   27.3771   44.3265   36.7078 C   0  0  0  0  0  0  0  0  0  0  0  0
   27.7070   43.6565   35.5644 C   0  0  0  0  0  0  0  0  0  0  0  0
   27.7021   42.1679   35.5482 C   0  0  0  0  0  0  0  0  0  0  0  0
   28.5868   41.8284   35.7565 H   0  0  0  0  0  0  0  0  0  0  0  0
   27.4465   41.8436   34.6710 H   0  0  0  0  0  0  0  0  0  0  0  0
   27.9897   44.6556   34.6321 C   0  0  0  0  0  0  0  0  0  0  0  0
   28.4607   44.4820   33.2399 C   0  0  0  0  0  0  0  0  0  0  0  0
   27.1605   46.7800   37.2759 C   0  0  0  0  0  0  0  0  0  0  0  0
   26.0615   46.7322   38.1036 C   0  0  0  0  0  0  0  0  0  0  0  0
   25.5072   45.9852   38.0975 H   0  0  0  0  0  0  0  0  0  0  0  0
   25.7823   47.7912   38.9406 C   0  0  0  0  0  0  0  0  0  0  0  0
   25.0419   47.7584   39.5008 H   0  0  0  0  0  0  0  0  0  0  0  0
   26.5987   48.8959   38.9456 C   0  0  0  0  0  0  0  0  0  0  0  0
   27.6781   48.9552   38.0816 C   0  0  0  0  0  0  0  0  0  0  0  0
   28.2124   49.7156   38.0628 H   0  0  0  0  0  0  0  0  0  0  0  0
   27.9654   47.9023   37.2531 C   0  0  0  0  0  0  0  0  0  0  0  0
   28.6970   47.9425   36.6800 H   0  0  0  0  0  0  0  0  0  0  0  0
   25.4272   49.8642   40.7619 C   0  0  0  0  0  0  0  0  0  0  0  0
   25.4446   50.6458   41.3194 H   0  0  0  0  0  0  0  0  0  0  0  0
   25.5847   49.0844   41.2990 H   0  0  0  0  0  0  0  0  0  0  0  0
   24.5677   49.7932   40.3393 H   0  0  0  0  0  0  0  0  0  0  0  0
   28.6866   45.5325   31.6456 H   0  0  0  0  0  0  0  0  0  0  0  0
   28.0476   46.2426   32.7500 H   0  0  0  0  0  0  0  0  0  0  0  0
   26.9316   42.3368   37.9013 N   0  0  0  0  0  0  0  0  0  0  0  0
   27.4666   45.6626   36.4407 N   0  0  0  0  0  0  0  0  0  0  0  0
   27.8276   45.8753   35.1579 N   0  0  0  0  0  0  0  0  0  0  0  0
   28.4206   45.5681   32.4738 N   0  0  0  0  0  0  0  0  0  0  0  0
   27.2785   44.2510   39.0787 O   0  0  0  0  0  0  0  0  0  0  0  0
   28.8837   43.3985   32.8751 O   0  0  0  0  0  0  0  0  0  0  0  0
   26.4345   49.9674   39.7709 O   0  0  0  0  0  0  0  0  0  0  0  0
   22.8395   27.5667   37.2983 H   0  0  0  0  0  0  0  0  0  0  0  0
   21.6619   27.1515   38.8688 C   0  0  0  0  0  0  0  0  0  0  0  0
   22.0762   26.3500   39.0949 H   0  0  0  0  0  0  0  0  0  0  0  0
   20.5902   27.5995   39.6021 C   0  0  0  0  0  0  0  0  0  0  0  0
   20.3789   27.5089   42.0716 C   0  0  0  0  0  0  0  0  0  0  0  0
   21.2758   27.2996   42.3751 H   0  0  0  0  0  0  0  0  0  0  0  0
   19.9167   25.5304   40.6488 C   0  0  0  0  0  0  0  0  0  0  0  0
   19.7049   24.8845   41.9539 C   0  0  0  0  0  0  0  0  0  0  0  0
   19.3750   25.5545   43.0974 C   0  0  0  0  0  0  0  0  0  0  0  0
   19.3799   27.0431   43.1136 C   0  0  0  0  0  0  0  0  0  0  0  0
   18.4952   27.3826   42.9053 H   0  0  0  0  0  0  0  0  0  0  0  0
   19.6355   27.3674   43.9908 H   0  0  0  0  0  0  0  0  0  0  0  0
   19.0923   24.5554   44.0297 C   0  0  0  0  0  0  0  0  0  0  0  0
   18.6213   24.7290   45.4218 C   0  0  0  0  0  0  0  0  0  0  0  0
   19.9215   22.4310   41.3858 C   0  0  0  0  0  0  0  0  0  0  0  0
   21.0205   22.4788   40.5582 C   0  0  0  0  0  0  0  0  0  0  0  0
   21.5748   23.2258   40.5643 H   0  0  0  0  0  0  0  0  0  0  0  0
   21.2997   21.4198   39.7212 C   0  0  0  0  0  0  0  0  0  0  0  0
   22.0401   21.4526   39.1610 H   0  0  0  0  0  0  0  0  0  0  0  0
   20.4833   20.3151   39.7162 C   0  0  0  0  0  0  0  0  0  0  0  0
   19.4039   20.2558   40.5802 C   0  0  0  0  0  0  0  0  0  0  0  0
   18.8697   19.4954   40.5989 H   0  0  0  0  0  0  0  0  0  0  0  0
   19.1166   21.3087   41.4086 C   0  0  0  0  0  0  0  0  0  0  0  0
   18.3850   21.2685   41.9818 H   0  0  0  0  0  0  0  0  0  0  0  0
   21.6548   19.3468   37.8999 C   0  0  0  0  0  0  0  0  0  0  0  0
   21.6374   18.5652   37.3423 H   0  0  0  0  0  0  0  0  0  0  0  0
   21.4973   20.1266   37.3628 H   0  0  0  0  0  0  0  0  0  0  0  0
   22.5143   19.4178   38.3224 H   0  0  0  0  0  0  0  0  0  0  0  0
   18.3954   23.6785   47.0161 H   0  0  0  0  0  0  0  0  0  0  0  0
   19.0344   22.9684   45.9117 H   0  0  0  0  0  0  0  0  0  0  0  0
   20.1504   26.8742   40.7605 N   0  0  0  0  0  0  0  0  0  0  0  0
   19.6154   23.5484   42.2211 N   0  0  0  0  0  0  0  0  0  0  0  0
   19.2544   23.3357   43.5039 N   0  0  0  0  0  0  0  0  0  0  0  0
   18.6614   23.6429   46.1880 N   0  0  0  0  0  0  0  0  0  0  0  0
   19.8035   24.9600   39.5831 O   0  0  0  0  0  0  0  0  0  0  0  0
   18.1983   25.8125   45.7866 O   0  0  0  0  0  0  0  0  0  0  0  0
   20.6475   19.2436   38.8908 O   0  0  0  0  0  0  0  0  0  0  0  0
   21.1688   30.1144   35.2529 C   0  0  0  0  0  0  0  0  0  0  0  0
   20.4746   30.7311   35.5362 H   0  0  0  0  0  0  0  0  0  0  0  0
   20.7379   29.2818   35.0045 H   0  0  0  0  0  0  0  0  0  0  0  0
   21.8364   30.6702   34.0693 C   0  0  0  0  0  0  0  0  0  0  0  0
   22.2759   29.9490   33.5901 H   0  0  0  0  0  0  0  0  0  0  0  0
   21.1664   31.0494   33.4800 H   0  0  0  0  0  0  0  0  0  0  0  0
   22.8329   31.7069   34.3892 C   0  0  0  0  0  0  0  0  0  0  0  0
   23.2905   31.9727   33.5760 H   0  0  0  0  0  0  0  0  0  0  0  0
   22.3793   32.4876   34.7449 H   0  0  0  0  0  0  0  0  0  0  0  0
   23.8356   31.2241   35.3835 C   0  0  0  0  0  0  0  0  0  0  0  0
   24.4892   30.6799   34.9179 H   0  0  0  0  0  0  0  0  0  0  0  0
   24.3029   31.9935   35.7439 H   0  0  0  0  0  0  0  0  0  0  0  0
   23.2862   30.4264   36.5272 C   0  0  0  0  0  0  0  0  0  0  0  0
   20.4494   29.5250   38.1928 C   0  0  0  0  0  0  0  0  0  0  0  0
   20.0376   30.3283   37.9669 H   0  0  0  0  0  0  0  0  0  0  0  0
   21.5366   29.0832   37.4702 C   0  0  0  0  0  0  0  0  0  0  0  0
   22.1243   27.8839   37.8012 C   0  0  0  0  0  0  0  0  0  0  0  0
   19.9701   28.7786   39.2499 C   0  0  0  0  0  0  0  0  0  0  0  0
   19.2271   29.0728   39.7258 H   0  0  0  0  0  0  0  0  0  0  0  0
   20.3130   28.4720   41.9755 H   0  0  0  0  0  0  0  0  0  0  0  0
   22.0662   29.8615   36.3867 N   0  0  0  0  0  0  0  0  0  0  0  0
   23.9409   30.2849   37.5563 O   0  0  0  0  0  0  0  0  0  0  0  0
  1  2  1  0  0  0  0
  1  3  1  0  0  0  0
  1  4  1  0  0  0  0
  4  5  1  0  0  0  0
  4  6  1  0  0  0  0
  4  7  1  0  0  0  0
  7  8  1  0  0  0  0
  7  9  1  0  0  0  0
  7 10  1  0  0  0  0
 10 11  1  0  0  0  0
 10 12  1  0  0  0  0
 10 13  1  0  0  0  0
 14 15  1  0  0  0  0
 14 16  4  0  0  0  0
 16 17  4  0  0  0  0
 14 18  4  0  0  0  0
 18 19  1  0  0  0  0
  1 21  1  0  0  0  0
 13 21  4  0  0  0  0
 16 21  1  0  0  0  0
 13 22  2  0  0  0  0
 17 23  1  0  0  0  0
 17 24  4  0  0  0  0
 24 25  1  0  0  0  0
 18 26  4  0  0  0  0
 24 26  4  0  0  0  0
 20 27  1  0  0  0  0
 27 28  1  0  0  0  0
 29 30  1  0  0  0  0
 30 31  4  0  0  0  0
 27 32  1  0  0  0  0
 31 32  1  0  0  0  0
 32 33  1  0  0  0  0
 32 34  1  0  0  0  0
 31 35  4  0  0  0  0
 35 36  1  0  0  0  0
 37 38  4  0  0  0  0
 38 39  1  0  0  0  0
 38 40  4  0  0  0  0
 40 41  1  0  0  0  0
 40 42  4  0  0  0  0
 42 43  4  0  0  0  0
 43 44  1  0  0  0  0
 37 45  4  0  0  0  0
 43 45  4  0  0  0  0
 45 46  1  0  0  0  0
 47 48  1  0  0  0  0
 47 49  1  0  0  0  0
 47 50  1  0  0  0  0
 26 53  1  0  0  0  0
 27 53  1  0  0  0  0
 29 53  4  0  0  0  0
 30 54  4  0  0  0  0
 37 54  1  0  0  0  0
 35 55  4  0  0  0  0
 54 55  4  0  0  0  0
 36 56  4  0  0  0  0
 51 56  1  0  0  0  0
 52 56  1  0  0  0  0
 29 57  2  0  0  0  0
 36 58  2  0  0  0  0
 42 59  1  0  0  0  0
 47 59  1  0  0  0  0
 61 62  1  0  0  0  0
 61 63  4  0  0  0  0
 64 65  1  0  0  0  0
 66 67  1  0  0  0  0
 67 68  4  0  0  0  0
 64 69  1  0  0  0  0
 68 69  1  0  0  0  0
 69 70  1  0  0  0  0
 69 71  1  0  0  0  0
 68 72  4  0  0  0  0
 72 73  1  0  0  0  0
 74 75  4  0  0  0  0
 75 76  1  0  0  0  0
 75 77  4  0  0  0  0
 77 78  1  0  0  0  0
 77 79  4  0  0  0  0
 79 80  4  0  0  0  0
 80 81  1  0  0  0  0
 74 82  4  0  0  0  0
 80 82  4  0  0  0  0
 82 83  1  0  0  0  0
 84 85  1  0  0  0  0
 84 86  1  0  0  0  0
 84 87  1  0  0  0  0
 63 90  1  0  0  0  0
 64 90  1  0  0  0  0
 66 90  4  0  0  0  0
 67 91  4  0  0  0  0
 74 91  1  0  0  0  0
 72 92  4  0  0  0  0
 91 92  4  0  0  0  0
 73 93  4  0  0  0  0
 88 93  1  0  0  0  0
 89 93  1  0  0  0  0
 66 94  2  0  0  0  0
 73 95  2  0  0  0  0
 79 96  1  0  0  0  0
 84 96  1  0  0  0  0
 97 98  1  0  0  0  0
 97 99  1  0  0  0  0
 97100  1  0  0  0  0
100101  1  0  0  0  0
100102  1  0  0  0  0
100103  1  0  0  0  0
103104  1  0  0  0  0
103105  1  0  0  0  0
103106  1  0  0  0  0
106107  1  0  0  0  0
106108  1  0  0  0  0
106109  1  0  0  0  0
110111  1  0  0  0  0
110112  4  0  0  0  0
 60113  1  0  0  0  0
 61113  4  0  0  0  0
112113  4  0  0  0  0
 63114  4  0  0  0  0
110114  4  0  0  0  0
114115  1  0  0  0  0
 64116  1  0  0  0  0
 97117  1  0  0  0  0
109117  4  0  0  0  0
112117  1  0  0  0  0
109118  2  0  0  0  0
M  END
