 xtb: 6.7.1pre (5071a88)
          10032619143D

 59 63  0     0  0            999 V2000
   18.5382   51.9874   35.4121 C   0  0  0  0  0  0  0  0  0  0  0  0
   17.8846   51.4432   35.8776 H   0  0  0  0  0  0  0  0  0  0  0  0
   18.0709   52.7568   35.0517 H   0  0  0  0  0  0  0  0  0  0  0  0
   18.4329   51.0482   33.2393 O   0  0  0  0  0  0  0  0  0  0  0  0
   21.8905   41.0784   31.0794 C   0  0  0  0  0  0  0  0  0  0  0  0
   22.9699   41.0191   30.2154 C   0  0  0  0  0  0  0  0  0  0  0  0
   23.5042   40.2587   30.1967 H   0  0  0  0  0  0  0  0  0  0  0  0
   20.7190   40.1101   32.8957 C   0  0  0  0  0  0  0  0  0  0  0  0
   20.7364   39.3285   33.4533 H   0  0  0  0  0  0  0  0  0  0  0  0
   20.8765   40.8899   33.4328 H   0  0  0  0  0  0  0  0  0  0  0  0
   19.8595   40.1811   32.4731 H   0  0  0  0  0  0  0  0  0  0  0  0
   21.7263   40.0069   31.9047 O   0  0  0  0  0  0  0  0  0  0  0  0
   21.7836   48.3628   31.1935 C   0  0  0  0  0  0  0  0  0  0  0  0
   23.1467   49.8361   31.0698 H   0  0  0  0  0  0  0  0  0  0  0  0
   21.9949   48.2722   28.7240 C   0  0  0  0  0  0  0  0  0  0  0  0
   21.0980   48.0629   28.4205 H   0  0  0  0  0  0  0  0  0  0  0  0
   22.0608   49.2353   28.8201 H   0  0  0  0  0  0  0  0  0  0  0  0
   22.4571   46.2937   30.1468 C   0  0  0  0  0  0  0  0  0  0  0  0
   22.6689   45.6478   28.8416 C   0  0  0  0  0  0  0  0  0  0  0  0
   22.9988   46.3178   27.6982 C   0  0  0  0  0  0  0  0  0  0  0  0
   22.9939   47.8064   27.6820 C   0  0  0  0  0  0  0  0  0  0  0  0
   23.8786   48.1459   27.8903 H   0  0  0  0  0  0  0  0  0  0  0  0
   22.7383   48.1307   26.8048 H   0  0  0  0  0  0  0  0  0  0  0  0
   23.2815   45.3187   26.7659 C   0  0  0  0  0  0  0  0  0  0  0  0
   23.7525   45.4923   25.3738 C   0  0  0  0  0  0  0  0  0  0  0  0
   22.4523   43.1943   29.4097 C   0  0  0  0  0  0  0  0  0  0  0  0
   21.3533   43.2421   30.2374 C   0  0  0  0  0  0  0  0  0  0  0  0
   20.7990   43.9891   30.2313 H   0  0  0  0  0  0  0  0  0  0  0  0
   21.0741   42.1831   31.0744 C   0  0  0  0  0  0  0  0  0  0  0  0
   23.2572   42.0720   29.3869 C   0  0  0  0  0  0  0  0  0  0  0  0
   23.9888   42.0318   28.8138 H   0  0  0  0  0  0  0  0  0  0  0  0
   23.9784   44.4418   23.7794 H   0  0  0  0  0  0  0  0  0  0  0  0
   23.3394   43.7317   24.8839 H   0  0  0  0  0  0  0  0  0  0  0  0
   22.2234   47.6375   30.0351 N   0  0  0  0  0  0  0  0  0  0  0  0
   22.7584   44.3117   28.5745 N   0  0  0  0  0  0  0  0  0  0  0  0
   23.1194   44.0990   27.2917 N   0  0  0  0  0  0  0  0  0  0  0  0
   23.7124   44.4062   24.6076 N   0  0  0  0  0  0  0  0  0  0  0  0
   22.5703   45.7233   31.2125 O   0  0  0  0  0  0  0  0  0  0  0  0
   24.1755   46.5758   25.0089 O   0  0  0  0  0  0  0  0  0  0  0  0
   21.2050   50.8777   35.5427 C   0  0  0  0  0  0  0  0  0  0  0  0
   21.8992   51.4944   35.2593 H   0  0  0  0  0  0  0  0  0  0  0  0
   21.6359   50.0451   35.7911 H   0  0  0  0  0  0  0  0  0  0  0  0
   20.5374   51.4335   36.7262 C   0  0  0  0  0  0  0  0  0  0  0  0
   20.0979   50.7123   37.2054 H   0  0  0  0  0  0  0  0  0  0  0  0
   21.2074   51.8127   37.3156 H   0  0  0  0  0  0  0  0  0  0  0  0
   19.5409   52.4702   36.4064 C   0  0  0  0  0  0  0  0  0  0  0  0
   19.0833   52.7360   37.2196 H   0  0  0  0  0  0  0  0  0  0  0  0
   19.9945   53.2509   36.0507 H   0  0  0  0  0  0  0  0  0  0  0  0
   19.0877   51.1897   34.2684 C   0  0  0  0  0  0  0  0  0  0  0  0
   21.9244   50.2883   32.6028 C   0  0  0  0  0  0  0  0  0  0  0  0
   22.3363   51.0916   32.8287 H   0  0  0  0  0  0  0  0  0  0  0  0
   20.8372   49.8465   33.3254 C   0  0  0  0  0  0  0  0  0  0  0  0
   20.2495   48.6472   32.9944 C   0  0  0  0  0  0  0  0  0  0  0  0
   19.5343   48.3300   33.4973 H   0  0  0  0  0  0  0  0  0  0  0  0
   20.7119   47.9148   31.9268 C   0  0  0  0  0  0  0  0  0  0  0  0
   20.2976   47.1133   31.7007 H   0  0  0  0  0  0  0  0  0  0  0  0
   22.4037   49.5419   31.5457 C   0  0  0  0  0  0  0  0  0  0  0  0
   20.3337   42.2159   31.6346 H   0  0  0  0  0  0  0  0  0  0  0  0
   20.3076   50.6248   34.4088 N   0  0  0  0  0  0  0  0  0  0  0  0
  1  2  1  0  0  0  0
  1  3  1  0  0  0  0
  5  6  4  0  0  0  0
  6  7  1  0  0  0  0
  8  9  1  0  0  0  0
  8 10  1  0  0  0  0
  8 11  1  0  0  0  0
  5 12  1  0  0  0  0
  8 12  1  0  0  0  0
 15 16  1  0  0  0  0
 15 17  1  0  0  0  0
 18 19  1  0  0  0  0
 19 20  4  0  0  0  0
 15 21  1  0  0  0  0
 20 21  1  0  0  0  0
 21 22  1  0  0  0  0
 21 23  1  0  0  0  0
 20 24  4  0  0  0  0
 24 25  1  0  0  0  0
 26 27  4  0  0  0  0
 27 28  1  0  0  0  0
  5 29  4  0  0  0  0
 27 29  4  0  0  0  0
  6 30  4  0  0  0  0
 26 30  4  0  0  0  0
 30 31  1  0  0  0  0
 13 34  1  0  0  0  0
 15 34  1  0  0  0  0
 18 34  4  0  0  0  0
 19 35  4  0  0  0  0
 26 35  1  0  0  0  0
 24 36  4  0  0  0  0
 35 36  4  0  0  0  0
 25 37  4  0  0  0  0
 32 37  1  0  0  0  0
 33 37  1  0  0  0  0
 18 38  2  0  0  0  0
 25 39  2  0  0  0  0
 40 41  1  0  0  0  0
 40 42  1  0  0  0  0
 40 43  1  0  0  0  0
 43 44  1  0  0  0  0
 43 45  1  0  0  0  0
  1 46  1  0  0  0  0
 43 46  1  0  0  0  0
 46 47  1  0  0  0  0
 46 48  1  0  0  0  0
  1 49  1  0  0  0  0
  4 49  2  0  0  0  0
 50 51  1  0  0  0  0
 50 52  4  0  0  0  0
 52 53  4  0  0  0  0
 53 54  1  0  0  0  0
 13 55  4  0  0  0  0
 53 55  4  0  0  0  0
 55 56  1  0  0  0  0
 13 57  4  0  0  0  0
 14 57  1  0  0  0  0
 50 57  4  0  0  0  0
 29 58  1  0  0  0  0
 40 59  1  0  0  0  0
 49 59  4  0  0  0  0
 52 59  1  0  0  0  0
M  END
