 xtb: 6.7.1pre (5071a88)
          10032618563D

 59 63  0     0  0            999 V2000
   15.6562   32.1755   43.1191 C   0  0  0  0  0  0  0  0  0  0  0  0
   14.9620   31.5588   43.4024 H   0  0  0  0  0  0  0  0  0  0  0  0
   15.2253   33.0081   42.8707 H   0  0  0  0  0  0  0  0  0  0  0  0
   16.3238   31.6197   41.9355 C   0  0  0  0  0  0  0  0  0  0  0  0
   16.7633   32.3409   41.4563 H   0  0  0  0  0  0  0  0  0  0  0  0
   15.6538   31.2405   41.3462 H   0  0  0  0  0  0  0  0  0  0  0  0
   17.3203   30.5830   42.2554 C   0  0  0  0  0  0  0  0  0  0  0  0
   17.7779   30.3172   41.4422 H   0  0  0  0  0  0  0  0  0  0  0  0
   16.8667   29.8023   42.6111 H   0  0  0  0  0  0  0  0  0  0  0  0
   17.7736   31.8635   44.3934 C   0  0  0  0  0  0  0  0  0  0  0  0
   14.9368   32.7649   46.0590 C   0  0  0  0  0  0  0  0  0  0  0  0
   14.5250   31.9616   45.8331 H   0  0  0  0  0  0  0  0  0  0  0  0
   16.0240   33.2067   45.3364 C   0  0  0  0  0  0  0  0  0  0  0  0
   16.6117   34.4060   45.6674 C   0  0  0  0  0  0  0  0  0  0  0  0
   17.3269   34.7232   45.1644 H   0  0  0  0  0  0  0  0  0  0  0  0
   16.1493   35.1384   46.7350 C   0  0  0  0  0  0  0  0  0  0  0  0
   16.5636   35.9399   46.9611 H   0  0  0  0  0  0  0  0  0  0  0  0
   14.4575   33.5113   47.1160 C   0  0  0  0  0  0  0  0  0  0  0  0
   16.5275   40.8373   47.0271 H   0  0  0  0  0  0  0  0  0  0  0  0
   16.5536   32.4284   44.2529 N   0  0  0  0  0  0  0  0  0  0  0  0
   15.0776   34.6904   47.4683 C   0  0  0  0  0  0  0  0  0  0  0  0
   13.7145   33.2171   47.5919 H   0  0  0  0  0  0  0  0  0  0  0  0
   14.8663   34.7810   49.9378 C   0  0  0  0  0  0  0  0  0  0  0  0
   15.7632   34.9903   50.2413 H   0  0  0  0  0  0  0  0  0  0  0  0
   14.8004   33.8179   49.8417 H   0  0  0  0  0  0  0  0  0  0  0  0
   14.4041   36.7595   48.5149 C   0  0  0  0  0  0  0  0  0  0  0  0
   14.1923   37.4054   49.8201 C   0  0  0  0  0  0  0  0  0  0  0  0
   13.8624   36.7354   50.9635 C   0  0  0  0  0  0  0  0  0  0  0  0
   13.8673   35.2468   50.9797 C   0  0  0  0  0  0  0  0  0  0  0  0
   12.9826   34.9073   50.7714 H   0  0  0  0  0  0  0  0  0  0  0  0
   14.1229   34.9225   51.8570 H   0  0  0  0  0  0  0  0  0  0  0  0
   13.5797   37.7345   51.8958 C   0  0  0  0  0  0  0  0  0  0  0  0
   13.1087   37.5609   53.2880 C   0  0  0  0  0  0  0  0  0  0  0  0
   14.4089   39.8589   49.2520 C   0  0  0  0  0  0  0  0  0  0  0  0
   15.5079   39.8111   48.4243 C   0  0  0  0  0  0  0  0  0  0  0  0
   16.0622   39.0641   48.4305 H   0  0  0  0  0  0  0  0  0  0  0  0
   15.7871   40.8701   47.5874 C   0  0  0  0  0  0  0  0  0  0  0  0
   13.6040   40.9812   49.2748 C   0  0  0  0  0  0  0  0  0  0  0  0
   12.8724   41.0214   49.8479 H   0  0  0  0  0  0  0  0  0  0  0  0
   12.8828   38.6114   54.8823 H   0  0  0  0  0  0  0  0  0  0  0  0
   13.5218   39.3215   53.7779 H   0  0  0  0  0  0  0  0  0  0  0  0
   14.6378   35.4157   48.6266 N   0  0  0  0  0  0  0  0  0  0  0  0
   14.1028   38.7415   50.0872 N   0  0  0  0  0  0  0  0  0  0  0  0
   13.7418   38.9542   51.3701 N   0  0  0  0  0  0  0  0  0  0  0  0
   13.1488   38.6470   54.0541 N   0  0  0  0  0  0  0  0  0  0  0  0
   14.2909   37.3299   47.4492 O   0  0  0  0  0  0  0  0  0  0  0  0
   12.6857   36.4774   53.6528 O   0  0  0  0  0  0  0  0  0  0  0  0
   16.1422   42.9431   45.7660 C   0  0  0  0  0  0  0  0  0  0  0  0
   16.1248   43.7247   45.2085 H   0  0  0  0  0  0  0  0  0  0  0  0
   15.9847   42.1633   45.2289 H   0  0  0  0  0  0  0  0  0  0  0  0
   17.0017   42.8721   46.1886 H   0  0  0  0  0  0  0  0  0  0  0  0
   15.1349   43.0463   46.7570 O   0  0  0  0  0  0  0  0  0  0  0  0
   14.9707   41.9748   47.5823 C   0  0  0  0  0  0  0  0  0  0  0  0
   13.8913   42.0341   48.4464 C   0  0  0  0  0  0  0  0  0  0  0  0
   13.3571   42.7945   48.4651 H   0  0  0  0  0  0  0  0  0  0  0  0
   18.3230   31.0658   43.2496 C   0  0  0  0  0  0  0  0  0  0  0  0
   18.9766   31.6100   42.7841 H   0  0  0  0  0  0  0  0  0  0  0  0
   18.7903   30.2964   43.6101 H   0  0  0  0  0  0  0  0  0  0  0  0
   18.4283   32.0050   45.4224 O   0  0  0  0  0  0  0  0  0  0  0  0
  1  2  1  0  0  0  0
  1  3  1  0  0  0  0
  1  4  1  0  0  0  0
  4  5  1  0  0  0  0
  4  6  1  0  0  0  0
  4  7  1  0  0  0  0
  7  8  1  0  0  0  0
  7  9  1  0  0  0  0
 11 12  1  0  0  0  0
 11 13  4  0  0  0  0
 13 14  4  0  0  0  0
 14 15  1  0  0  0  0
 14 16  4  0  0  0  0
 16 17  1  0  0  0  0
 11 18  4  0  0  0  0
  1 20  1  0  0  0  0
 10 20  4  0  0  0  0
 13 20  1  0  0  0  0
 16 21  4  0  0  0  0
 18 21  4  0  0  0  0
 18 22  1  0  0  0  0
 23 24  1  0  0  0  0
 23 25  1  0  0  0  0
 26 27  1  0  0  0  0
 27 28  4  0  0  0  0
 23 29  1  0  0  0  0
 28 29  1  0  0  0  0
 29 30  1  0  0  0  0
 29 31  1  0  0  0  0
 28 32  4  0  0  0  0
 32 33  1  0  0  0  0
 34 35  4  0  0  0  0
 35 36  1  0  0  0  0
 19 37  1  0  0  0  0
 35 37  4  0  0  0  0
 34 38  4  0  0  0  0
 38 39  1  0  0  0  0
 21 42  1  0  0  0  0
 23 42  1  0  0  0  0
 26 42  4  0  0  0  0
 27 43  4  0  0  0  0
 34 43  1  0  0  0  0
 32 44  4  0  0  0  0
 43 44  4  0  0  0  0
 33 45  4  0  0  0  0
 40 45  1  0  0  0  0
 41 45  1  0  0  0  0
 26 46  2  0  0  0  0
 33 47  2  0  0  0  0
 48 49  1  0  0  0  0
 48 50  1  0  0  0  0
 48 51  1  0  0  0  0
 48 52  1  0  0  0  0
 37 53  4  0  0  0  0
 52 53  1  0  0  0  0
 38 54  4  0  0  0  0
 53 54  4  0  0  0  0
 54 55  1  0  0  0  0
  7 56  1  0  0  0  0
 10 56  1  0  0  0  0
 56 57  1  0  0  0  0
 56 58  1  0  0  0  0
 10 59  2  0  0  0  0
M  END
