 xtb: 6.7.1pre (5071a88)
          10032619143D

118126  0     0  0            999 V2000
   22.8395   41.4089   37.2983 H   0  0  0  0  0  0  0  0  0  0  0  0
   21.6619   40.9937   38.8688 C   0  0  0  0  0  0  0  0  0  0  0  0
   22.0762   40.1922   39.0949 H   0  0  0  0  0  0  0  0  0  0  0  0
   20.5902   41.4417   39.6021 C   0  0  0  0  0  0  0  0  0  0  0  0
   20.3789   41.3511   42.0716 C   0  0  0  0  0  0  0  0  0  0  0  0
   21.2758   41.1418   42.3751 H   0  0  0  0  0  0  0  0  0  0  0  0
   19.9167   39.3726   40.6488 C   0  0  0  0  0  0  0  0  0  0  0  0
   19.7049   38.7267   41.9539 C   0  0  0  0  0  0  0  0  0  0  0  0
   19.3750   39.3967   43.0974 C   0  0  0  0  0  0  0  0  0  0  0  0
   19.3799   40.8853   43.1136 C   0  0  0  0  0  0  0  0  0  0  0  0
   18.4952   41.2248   42.9053 H   0  0  0  0  0  0  0  0  0  0  0  0
   19.6355   41.2096   43.9908 H   0  0  0  0  0  0  0  0  0  0  0  0
   19.0923   38.3976   44.0297 C   0  0  0  0  0  0  0  0  0  0  0  0
   18.6213   38.5712   45.4218 C   0  0  0  0  0  0  0  0  0  0  0  0
   19.9215   36.2732   41.3858 C   0  0  0  0  0  0  0  0  0  0  0  0
   21.0205   36.3210   40.5582 C   0  0  0  0  0  0  0  0  0  0  0  0
   21.5748   37.0680   40.5643 H   0  0  0  0  0  0  0  0  0  0  0  0
   21.2997   35.2620   39.7212 C   0  0  0  0  0  0  0  0  0  0  0  0
   22.0401   35.2948   39.1610 H   0  0  0  0  0  0  0  0  0  0  0  0
   20.4833   34.1573   39.7162 C   0  0  0  0  0  0  0  0  0  0  0  0
   19.4039   34.0980   40.5802 C   0  0  0  0  0  0  0  0  0  0  0  0
   18.8697   33.3376   40.5989 H   0  0  0  0  0  0  0  0  0  0  0  0
   19.1166   35.1509   41.4086 C   0  0  0  0  0  0  0  0  0  0  0  0
   18.3850   35.1107   41.9818 H   0  0  0  0  0  0  0  0  0  0  0  0
   21.6548   33.1890   37.8999 C   0  0  0  0  0  0  0  0  0  0  0  0
   21.6374   32.4074   37.3423 H   0  0  0  0  0  0  0  0  0  0  0  0
   21.4973   33.9688   37.3628 H   0  0  0  0  0  0  0  0  0  0  0  0
   22.5143   33.2600   38.3224 H   0  0  0  0  0  0  0  0  0  0  0  0
   18.3954   37.5207   47.0161 H   0  0  0  0  0  0  0  0  0  0  0  0
   19.0344   36.8106   45.9117 H   0  0  0  0  0  0  0  0  0  0  0  0
   20.1504   40.7164   40.7605 N   0  0  0  0  0  0  0  0  0  0  0  0
   19.6154   37.3906   42.2211 N   0  0  0  0  0  0  0  0  0  0  0  0
   19.2544   37.1779   43.5039 N   0  0  0  0  0  0  0  0  0  0  0  0
   18.6614   37.4851   46.1880 N   0  0  0  0  0  0  0  0  0  0  0  0
   19.8035   38.8022   39.5831 O   0  0  0  0  0  0  0  0  0  0  0  0
   18.1983   39.6547   45.7866 O   0  0  0  0  0  0  0  0  0  0  0  0
   20.6475   33.0858   38.8908 O   0  0  0  0  0  0  0  0  0  0  0  0
   21.1688   43.9566   35.2529 C   0  0  0  0  0  0  0  0  0  0  0  0
   20.4746   44.5733   35.5362 H   0  0  0  0  0  0  0  0  0  0  0  0
   20.7379   43.1240   35.0045 H   0  0  0  0  0  0  0  0  0  0  0  0
   21.8364   44.5124   34.0693 C   0  0  0  0  0  0  0  0  0  0  0  0
   22.2759   43.7912   33.5901 H   0  0  0  0  0  0  0  0  0  0  0  0
   21.1664   44.8916   33.4800 H   0  0  0  0  0  0  0  0  0  0  0  0
   22.8329   45.5491   34.3892 C   0  0  0  0  0  0  0  0  0  0  0  0
   23.2905   45.8149   33.5760 H   0  0  0  0  0  0  0  0  0  0  0  0
   22.3793   46.3298   34.7449 H   0  0  0  0  0  0  0  0  0  0  0  0
   23.8356   45.0663   35.3835 C   0  0  0  0  0  0  0  0  0  0  0  0
   24.4892   44.5221   34.9179 H   0  0  0  0  0  0  0  0  0  0  0  0
   24.3029   45.8357   35.7439 H   0  0  0  0  0  0  0  0  0  0  0  0
   23.2862   44.2686   36.5272 C   0  0  0  0  0  0  0  0  0  0  0  0
   20.4494   43.3672   38.1928 C   0  0  0  0  0  0  0  0  0  0  0  0
   20.0376   44.1705   37.9669 H   0  0  0  0  0  0  0  0  0  0  0  0
   21.5366   42.9254   37.4702 C   0  0  0  0  0  0  0  0  0  0  0  0
   22.1243   41.7261   37.8012 C   0  0  0  0  0  0  0  0  0  0  0  0
   19.9701   42.6208   39.2499 C   0  0  0  0  0  0  0  0  0  0  0  0
   19.2271   42.9150   39.7258 H   0  0  0  0  0  0  0  0  0  0  0  0
   20.3130   42.3142   41.9755 H   0  0  0  0  0  0  0  0  0  0  0  0
   22.0662   43.7037   36.3867 N   0  0  0  0  0  0  0  0  0  0  0  0
   23.9409   44.1271   37.5563 O   0  0  0  0  0  0  0  0  0  0  0  0
   15.6562   32.1755   43.1191 C   0  0  0  0  0  0  0  0  0  0  0  0
   14.9620   31.5588   43.4024 H   0  0  0  0  0  0  0  0  0  0  0  0
   15.2253   33.0081   42.8707 H   0  0  0  0  0  0  0  0  0  0  0  0
   16.3238   31.6197   41.9355 C   0  0  0  0  0  0  0  0  0  0  0  0
   16.7633   32.3409   41.4563 H   0  0  0  0  0  0  0  0  0  0  0  0
   15.6538   31.2405   41.3462 H   0  0  0  0  0  0  0  0  0  0  0  0
   17.3203   30.5830   42.2554 C   0  0  0  0  0  0  0  0  0  0  0  0
   17.7779   30.3172   41.4422 H   0  0  0  0  0  0  0  0  0  0  0  0
   16.8667   29.8023   42.6111 H   0  0  0  0  0  0  0  0  0  0  0  0
   17.7736   31.8635   44.3934 C   0  0  0  0  0  0  0  0  0  0  0  0
   14.9368   32.7649   46.0590 C   0  0  0  0  0  0  0  0  0  0  0  0
   14.5250   31.9616   45.8331 H   0  0  0  0  0  0  0  0  0  0  0  0
   16.0240   33.2067   45.3364 C   0  0  0  0  0  0  0  0  0  0  0  0
   16.6117   34.4060   45.6674 C   0  0  0  0  0  0  0  0  0  0  0  0
   17.3269   34.7232   45.1644 H   0  0  0  0  0  0  0  0  0  0  0  0
   16.1493   35.1384   46.7350 C   0  0  0  0  0  0  0  0  0  0  0  0
   16.5636   35.9399   46.9611 H   0  0  0  0  0  0  0  0  0  0  0  0
   14.4575   33.5113   47.1160 C   0  0  0  0  0  0  0  0  0  0  0  0
   16.5275   40.8373   47.0271 H   0  0  0  0  0  0  0  0  0  0  0  0
   16.5536   32.4284   44.2529 N   0  0  0  0  0  0  0  0  0  0  0  0
   15.0776   34.6904   47.4683 C   0  0  0  0  0  0  0  0  0  0  0  0
   13.7145   33.2171   47.5919 H   0  0  0  0  0  0  0  0  0  0  0  0
   14.8663   34.7810   49.9378 C   0  0  0  0  0  0  0  0  0  0  0  0
   15.7632   34.9903   50.2413 H   0  0  0  0  0  0  0  0  0  0  0  0
   14.8004   33.8179   49.8417 H   0  0  0  0  0  0  0  0  0  0  0  0
   14.4041   36.7595   48.5149 C   0  0  0  0  0  0  0  0  0  0  0  0
   14.1923   37.4054   49.8201 C   0  0  0  0  0  0  0  0  0  0  0  0
   13.8624   36.7354   50.9635 C   0  0  0  0  0  0  0  0  0  0  0  0
   13.8673   35.2468   50.9797 C   0  0  0  0  0  0  0  0  0  0  0  0
   12.9826   34.9073   50.7714 H   0  0  0  0  0  0  0  0  0  0  0  0
   14.1229   34.9225   51.8570 H   0  0  0  0  0  0  0  0  0  0  0  0
   13.5797   37.7345   51.8958 C   0  0  0  0  0  0  0  0  0  0  0  0
   13.1087   37.5609   53.2880 C   0  0  0  0  0  0  0  0  0  0  0  0
   14.4089   39.8589   49.2520 C   0  0  0  0  0  0  0  0  0  0  0  0
   15.5079   39.8111   48.4243 C   0  0  0  0  0  0  0  0  0  0  0  0
   16.0622   39.0641   48.4305 H   0  0  0  0  0  0  0  0  0  0  0  0
   15.7871   40.8701   47.5874 C   0  0  0  0  0  0  0  0  0  0  0  0
   13.6040   40.9812   49.2748 C   0  0  0  0  0  0  0  0  0  0  0  0
   12.8724   41.0214   49.8479 H   0  0  0  0  0  0  0  0  0  0  0  0
   12.8828   38.6114   54.8823 H   0  0  0  0  0  0  0  0  0  0  0  0
   13.5218   39.3215   53.7779 H   0  0  0  0  0  0  0  0  0  0  0  0
   14.6378   35.4157   48.6266 N   0  0  0  0  0  0  0  0  0  0  0  0
   14.1028   38.7415   50.0872 N   0  0  0  0  0  0  0  0  0  0  0  0
   13.7418   38.9542   51.3701 N   0  0  0  0  0  0  0  0  0  0  0  0
   13.1488   38.6470   54.0541 N   0  0  0  0  0  0  0  0  0  0  0  0
   14.2909   37.3299   47.4492 O   0  0  0  0  0  0  0  0  0  0  0  0
   12.6857   36.4774   53.6528 O   0  0  0  0  0  0  0  0  0  0  0  0
   16.1422   42.9431   45.7660 C   0  0  0  0  0  0  0  0  0  0  0  0
   16.1248   43.7247   45.2085 H   0  0  0  0  0  0  0  0  0  0  0  0
   15.9847   42.1633   45.2289 H   0  0  0  0  0  0  0  0  0  0  0  0
   17.0017   42.8721   46.1886 H   0  0  0  0  0  0  0  0  0  0  0  0
   15.1349   43.0463   46.7570 O   0  0  0  0  0  0  0  0  0  0  0  0
   14.9707   41.9748   47.5823 C   0  0  0  0  0  0  0  0  0  0  0  0
   13.8913   42.0341   48.4464 C   0  0  0  0  0  0  0  0  0  0  0  0
   13.3571   42.7945   48.4651 H   0  0  0  0  0  0  0  0  0  0  0  0
   18.3230   31.0658   43.2496 C   0  0  0  0  0  0  0  0  0  0  0  0
   18.9766   31.6100   42.7841 H   0  0  0  0  0  0  0  0  0  0  0  0
   18.7903   30.2964   43.6101 H   0  0  0  0  0  0  0  0  0  0  0  0
   18.4283   32.0050   45.4224 O   0  0  0  0  0  0  0  0  0  0  0  0
  2  3  1  0  0  0  0
  2  4  4  0  0  0  0
  5  6  1  0  0  0  0
  7  8  1  0  0  0  0
  8  9  4  0  0  0  0
  5 10  1  0  0  0  0
  9 10  1  0  0  0  0
 10 11  1  0  0  0  0
 10 12  1  0  0  0  0
  9 13  4  0  0  0  0
 13 14  1  0  0  0  0
 15 16  4  0  0  0  0
 16 17  1  0  0  0  0
 16 18  4  0  0  0  0
 18 19  1  0  0  0  0
 18 20  4  0  0  0  0
 20 21  4  0  0  0  0
 21 22  1  0  0  0  0
 15 23  4  0  0  0  0
 21 23  4  0  0  0  0
 23 24  1  0  0  0  0
 25 26  1  0  0  0  0
 25 27  1  0  0  0  0
 25 28  1  0  0  0  0
  4 31  1  0  0  0  0
  5 31  1  0  0  0  0
  7 31  4  0  0  0  0
  8 32  4  0  0  0  0
 15 32  1  0  0  0  0
 13 33  4  0  0  0  0
 32 33  4  0  0  0  0
 14 34  4  0  0  0  0
 29 34  1  0  0  0  0
 30 34  1  0  0  0  0
  7 35  2  0  0  0  0
 14 36  2  0  0  0  0
 20 37  1  0  0  0  0
 25 37  1  0  0  0  0
 38 39  1  0  0  0  0
 38 40  1  0  0  0  0
 38 41  1  0  0  0  0
 41 42  1  0  0  0  0
 41 43  1  0  0  0  0
 41 44  1  0  0  0  0
 44 45  1  0  0  0  0
 44 46  1  0  0  0  0
 44 47  1  0  0  0  0
 47 48  1  0  0  0  0
 47 49  1  0  0  0  0
 47 50  1  0  0  0  0
 51 52  1  0  0  0  0
 51 53  4  0  0  0  0
  1 54  1  0  0  0  0
  2 54  4  0  0  0  0
 53 54  4  0  0  0  0
  4 55  4  0  0  0  0
 51 55  4  0  0  0  0
 55 56  1  0  0  0  0
  5 57  1  0  0  0  0
 38 58  1  0  0  0  0
 50 58  4  0  0  0  0
 53 58  1  0  0  0  0
 50 59  2  0  0  0  0
 60 61  1  0  0  0  0
 60 62  1  0  0  0  0
 60 63  1  0  0  0  0
 63 64  1  0  0  0  0
 63 65  1  0  0  0  0
 63 66  1  0  0  0  0
 66 67  1  0  0  0  0
 66 68  1  0  0  0  0
 70 71  1  0  0  0  0
 70 72  4  0  0  0  0
 72 73  4  0  0  0  0
 73 74  1  0  0  0  0
 73 75  4  0  0  0  0
 75 76  1  0  0  0  0
 70 77  4  0  0  0  0
 60 79  1  0  0  0  0
 69 79  4  0  0  0  0
 72 79  1  0  0  0  0
 75 80  4  0  0  0  0
 77 80  4  0  0  0  0
 77 81  1  0  0  0  0
 82 83  1  0  0  0  0
 82 84  1  0  0  0  0
 85 86  1  0  0  0  0
 86 87  4  0  0  0  0
 82 88  1  0  0  0  0
 87 88  1  0  0  0  0
 88 89  1  0  0  0  0
 88 90  1  0  0  0  0
 87 91  4  0  0  0  0
 91 92  1  0  0  0  0
 93 94  4  0  0  0  0
 94 95  1  0  0  0  0
 78 96  1  0  0  0  0
 94 96  4  0  0  0  0
 93 97  4  0  0  0  0
 97 98  1  0  0  0  0
 80101  1  0  0  0  0
 82101  1  0  0  0  0
 85101  1  0  0  0  0
 86102  4  0  0  0  0
 93102  1  0  0  0  0
 91103  4  0  0  0  0
102103  4  0  0  0  0
 92104  4  0  0  0  0
 99104  1  0  0  0  0
100104  1  0  0  0  0
 85105  2  0  0  0  0
 92106  2  0  0  0  0
107108  1  0  0  0  0
107109  1  0  0  0  0
107110  1  0  0  0  0
107111  1  0  0  0  0
 96112  4  0  0  0  0
111112  1  0  0  0  0
 97113  4  0  0  0  0
112113  4  0  0  0  0
113114  1  0  0  0  0
 66115  1  0  0  0  0
 69115  1  0  0  0  0
115116  1  0  0  0  0
115117  1  0  0  0  0
 69118  2  0  0  0  0
M  END
