 xtb: 6.7.1pre (5071a88)
          10032618553D

 59 63  0     0  0            999 V2000
   22.8395   41.4089   37.2983 H   0  0  0  0  0  0  0  0  0  0  0  0
   21.6619   40.9937   38.8688 C   0  0  0  0  0  0  0  0  0  0  0  0
   22.0762   40.1922   39.0949 H   0  0  0  0  0  0  0  0  0  0  0  0
   20.5902   41.4417   39.6021 C   0  0  0  0  0  0  0  0  0  0  0  0
   20.3789   41.3511   42.0716 C   0  0  0  0  0  0  0  0  0  0  0  0
   21.2758   41.1418   42.3751 H   0  0  0  0  0  0  0  0  0  0  0  0
   19.9167   39.3726   40.6488 C   0  0  0  0  0  0  0  0  0  0  0  0
   19.7049   38.7267   41.9539 C   0  0  0  0  0  0  0  0  0  0  0  0
   19.3750   39.3967   43.0974 C   0  0  0  0  0  0  0  0  0  0  0  0
   19.3799   40.8853   43.1136 C   0  0  0  0  0  0  0  0  0  0  0  0
   18.4952   41.2248   42.9053 H   0  0  0  0  0  0  0  0  0  0  0  0
   19.6355   41.2096   43.9908 H   0  0  0  0  0  0  0  0  0  0  0  0
   19.0923   38.3976   44.0297 C   0  0  0  0  0  0  0  0  0  0  0  0
   18.6213   38.5712   45.4218 C   0  0  0  0  0  0  0  0  0  0  0  0
   19.9215   36.2732   41.3858 C   0  0  0  0  0  0  0  0  0  0  0  0
   21.0205   36.3210   40.5582 C   0  0  0  0  0  0  0  0  0  0  0  0
   21.5748   37.0680   40.5643 H   0  0  0  0  0  0  0  0  0  0  0  0
   21.2997   35.2620   39.7212 C   0  0  0  0  0  0  0  0  0  0  0  0
   22.0401   35.2948   39.1610 H   0  0  0  0  0  0  0  0  0  0  0  0
   20.4833   34.1573   39.7162 C   0  0  0  0  0  0  0  0  0  0  0  0
   19.4039   34.0980   40.5802 C   0  0  0  0  0  0  0  0  0  0  0  0
   18.8697   33.3376   40.5989 H   0  0  0  0  0  0  0  0  0  0  0  0
   19.1166   35.1509   41.4086 C   0  0  0  0  0  0  0  0  0  0  0  0
   18.3850   35.1107   41.9818 H   0  0  0  0  0  0  0  0  0  0  0  0
   21.6548   33.1890   37.8999 C   0  0  0  0  0  0  0  0  0  0  0  0
   21.6374   32.4074   37.3423 H   0  0  0  0  0  0  0  0  0  0  0  0
   21.4973   33.9688   37.3628 H   0  0  0  0  0  0  0  0  0  0  0  0
   22.5143   33.2600   38.3224 H   0  0  0  0  0  0  0  0  0  0  0  0
   18.3954   37.5207   47.0161 H   0  0  0  0  0  0  0  0  0  0  0  0
   19.0344   36.8106   45.9117 H   0  0  0  0  0  0  0  0  0  0  0  0
   20.1504   40.7164   40.7605 N   0  0  0  0  0  0  0  0  0  0  0  0
   19.6154   37.3906   42.2211 N   0  0  0  0  0  0  0  0  0  0  0  0
   19.2544   37.1779   43.5039 N   0  0  0  0  0  0  0  0  0  0  0  0
   18.6614   37.4851   46.1880 N   0  0  0  0  0  0  0  0  0  0  0  0
   19.8035   38.8022   39.5831 O   0  0  0  0  0  0  0  0  0  0  0  0
   18.1983   39.6547   45.7866 O   0  0  0  0  0  0  0  0  0  0  0  0
   20.6475   33.0858   38.8908 O   0  0  0  0  0  0  0  0  0  0  0  0
   21.1688   43.9566   35.2529 C   0  0  0  0  0  0  0  0  0  0  0  0
   20.4746   44.5733   35.5362 H   0  0  0  0  0  0  0  0  0  0  0  0
   20.7379   43.1240   35.0045 H   0  0  0  0  0  0  0  0  0  0  0  0
   21.8364   44.5124   34.0693 C   0  0  0  0  0  0  0  0  0  0  0  0
   22.2759   43.7912   33.5901 H   0  0  0  0  0  0  0  0  0  0  0  0
   21.1664   44.8916   33.4800 H   0  0  0  0  0  0  0  0  0  0  0  0
   22.8329   45.5491   34.3892 C   0  0  0  0  0  0  0  0  0  0  0  0
   23.2905   45.8149   33.5760 H   0  0  0  0  0  0  0  0  0  0  0  0
   22.3793   46.3298   34.7449 H   0  0  0  0  0  0  0  0  0  0  0  0
   23.8356   45.0663   35.3835 C   0  0  0  0  0  0  0  0  0  0  0  0
   24.4892   44.5221   34.9179 H   0  0  0  0  0  0  0  0  0  0  0  0
   24.3029   45.8357   35.7439 H   0  0  0  0  0  0  0  0  0  0  0  0
   23.2862   44.2686   36.5272 C   0  0  0  0  0  0  0  0  0  0  0  0
   20.4494   43.3672   38.1928 C   0  0  0  0  0  0  0  0  0  0  0  0
   20.0376   44.1705   37.9669 H   0  0  0  0  0  0  0  0  0  0  0  0
   21.5366   42.9254   37.4702 C   0  0  0  0  0  0  0  0  0  0  0  0
   22.1243   41.7261   37.8012 C   0  0  0  0  0  0  0  0  0  0  0  0
   19.9701   42.6208   39.2499 C   0  0  0  0  0  0  0  0  0  0  0  0
   19.2271   42.9150   39.7258 H   0  0  0  0  0  0  0  0  0  0  0  0
   20.3130   42.3142   41.9755 H   0  0  0  0  0  0  0  0  0  0  0  0
   22.0662   43.7037   36.3867 N   0  0  0  0  0  0  0  0  0  0  0  0
   23.9409   44.1271   37.5563 O   0  0  0  0  0  0  0  0  0  0  0  0
  2  3  1  0  0  0  0
  2  4  4  0  0  0  0
  5  6  1  0  0  0  0
  7  8  1  0  0  0  0
  8  9  4  0  0  0  0
  5 10  1  0  0  0  0
  9 10  1  0  0  0  0
 10 11  1  0  0  0  0
 10 12  1  0  0  0  0
  9 13  4  0  0  0  0
 13 14  1  0  0  0  0
 15 16  4  0  0  0  0
 16 17  1  0  0  0  0
 16 18  4  0  0  0  0
 18 19  1  0  0  0  0
 18 20  4  0  0  0  0
 20 21  4  0  0  0  0
 21 22  1  0  0  0  0
 15 23  4  0  0  0  0
 21 23  4  0  0  0  0
 23 24  1  0  0  0  0
 25 26  1  0  0  0  0
 25 27  1  0  0  0  0
 25 28  1  0  0  0  0
  4 31  1  0  0  0  0
  5 31  1  0  0  0  0
  7 31  4  0  0  0  0
  8 32  4  0  0  0  0
 15 32  1  0  0  0  0
 13 33  4  0  0  0  0
 32 33  4  0  0  0  0
 14 34  4  0  0  0  0
 29 34  1  0  0  0  0
 30 34  1  0  0  0  0
  7 35  2  0  0  0  0
 14 36  2  0  0  0  0
 20 37  1  0  0  0  0
 25 37  1  0  0  0  0
 38 39  1  0  0  0  0
 38 40  1  0  0  0  0
 38 41  1  0  0  0  0
 41 42  1  0  0  0  0
 41 43  1  0  0  0  0
 41 44  1  0  0  0  0
 44 45  1  0  0  0  0
 44 46  1  0  0  0  0
 44 47  1  0  0  0  0
 47 48  1  0  0  0  0
 47 49  1  0  0  0  0
 47 50  1  0  0  0  0
 51 52  1  0  0  0  0
 51 53  4  0  0  0  0
  1 54  1  0  0  0  0
  2 54  4  0  0  0  0
 53 54  4  0  0  0  0
  4 55  4  0  0  0  0
 51 55  4  0  0  0  0
 55 56  1  0  0  0  0
  5 57  1  0  0  0  0
 38 58  1  0  0  0  0
 50 58  4  0  0  0  0
 53 58  1  0  0  0  0
 50 59  2  0  0  0  0
M  END
