 xtb: 6.7.1pre (5071a88)
          10032619143D

 59 63  0     0  0            999 V2000
   15.6924   25.2544   43.4089 C   0  0  0  0  0  0  0  0  0  0  0  0
   16.3866   24.6377   43.1255 H   0  0  0  0  0  0  0  0  0  0  0  0
   16.1233   26.0870   43.6573 H   0  0  0  0  0  0  0  0  0  0  0  0
   15.0248   24.6986   44.5924 C   0  0  0  0  0  0  0  0  0  0  0  0
   14.5853   25.4198   45.0716 H   0  0  0  0  0  0  0  0  0  0  0  0
   15.6948   24.3194   45.1817 H   0  0  0  0  0  0  0  0  0  0  0  0
   14.0283   23.6619   44.2726 C   0  0  0  0  0  0  0  0  0  0  0  0
   13.5707   23.3961   45.0858 H   0  0  0  0  0  0  0  0  0  0  0  0
   14.4819   22.8812   43.9169 H   0  0  0  0  0  0  0  0  0  0  0  0
   13.0256   24.1447   43.2783 C   0  0  0  0  0  0  0  0  0  0  0  0
   12.3720   24.6889   43.7438 H   0  0  0  0  0  0  0  0  0  0  0  0
   12.5583   23.3753   42.9178 H   0  0  0  0  0  0  0  0  0  0  0  0
   13.5751   24.9424   42.1345 C   0  0  0  0  0  0  0  0  0  0  0  0
   16.4118   25.8438   40.4690 C   0  0  0  0  0  0  0  0  0  0  0  0
   16.8237   25.0405   40.6949 H   0  0  0  0  0  0  0  0  0  0  0  0
   15.3246   26.2856   41.1915 C   0  0  0  0  0  0  0  0  0  0  0  0
   14.7369   27.4849   40.8605 C   0  0  0  0  0  0  0  0  0  0  0  0
   16.8911   26.5902   39.4119 C   0  0  0  0  0  0  0  0  0  0  0  0
   17.6342   26.2960   38.9360 H   0  0  0  0  0  0  0  0  0  0  0  0
   16.5482   26.8968   36.6863 H   0  0  0  0  0  0  0  0  0  0  0  0
   14.7950   25.5073   42.2750 N   0  0  0  0  0  0  0  0  0  0  0  0
   12.9203   25.0839   41.1055 O   0  0  0  0  0  0  0  0  0  0  0  0
   14.0217   27.8021   41.3635 H   0  0  0  0  0  0  0  0  0  0  0  0
   15.1993   28.2173   39.7929 C   0  0  0  0  0  0  0  0  0  0  0  0
   14.7850   29.0188   39.5669 H   0  0  0  0  0  0  0  0  0  0  0  0
   16.2710   27.7693   39.0596 C   0  0  0  0  0  0  0  0  0  0  0  0
   16.4823   27.8599   36.5901 C   0  0  0  0  0  0  0  0  0  0  0  0
   15.5854   28.0692   36.2867 H   0  0  0  0  0  0  0  0  0  0  0  0
   16.9445   29.8384   38.0130 C   0  0  0  0  0  0  0  0  0  0  0  0
   17.1563   30.4843   36.7078 C   0  0  0  0  0  0  0  0  0  0  0  0
   17.4862   29.8143   35.5644 C   0  0  0  0  0  0  0  0  0  0  0  0
   17.4813   28.3257   35.5482 C   0  0  0  0  0  0  0  0  0  0  0  0
   18.3660   27.9862   35.7565 H   0  0  0  0  0  0  0  0  0  0  0  0
   17.2257   28.0014   34.6710 H   0  0  0  0  0  0  0  0  0  0  0  0
   17.7689   30.8134   34.6321 C   0  0  0  0  0  0  0  0  0  0  0  0
   18.2399   30.6398   33.2399 C   0  0  0  0  0  0  0  0  0  0  0  0
   16.9397   32.9378   37.2759 C   0  0  0  0  0  0  0  0  0  0  0  0
   15.8407   32.8900   38.1036 C   0  0  0  0  0  0  0  0  0  0  0  0
   15.2864   32.1430   38.0975 H   0  0  0  0  0  0  0  0  0  0  0  0
   15.5615   33.9490   38.9406 C   0  0  0  0  0  0  0  0  0  0  0  0
   14.8211   33.9162   39.5008 H   0  0  0  0  0  0  0  0  0  0  0  0
   16.3779   35.0537   38.9456 C   0  0  0  0  0  0  0  0  0  0  0  0
   17.4573   35.1130   38.0816 C   0  0  0  0  0  0  0  0  0  0  0  0
   17.9916   35.8734   38.0628 H   0  0  0  0  0  0  0  0  0  0  0  0
   17.7446   34.0601   37.2531 C   0  0  0  0  0  0  0  0  0  0  0  0
   18.4762   34.1003   36.6800 H   0  0  0  0  0  0  0  0  0  0  0  0
   15.2064   36.0220   40.7619 C   0  0  0  0  0  0  0  0  0  0  0  0
   15.2238   36.8036   41.3194 H   0  0  0  0  0  0  0  0  0  0  0  0
   15.3639   35.2422   41.2990 H   0  0  0  0  0  0  0  0  0  0  0  0
   14.3469   35.9510   40.3393 H   0  0  0  0  0  0  0  0  0  0  0  0
   18.4658   31.6903   31.6456 H   0  0  0  0  0  0  0  0  0  0  0  0
   17.8268   32.4004   32.7500 H   0  0  0  0  0  0  0  0  0  0  0  0
   16.7108   28.4946   37.9013 N   0  0  0  0  0  0  0  0  0  0  0  0
   17.2458   31.8204   36.4407 N   0  0  0  0  0  0  0  0  0  0  0  0
   17.6068   32.0331   35.1579 N   0  0  0  0  0  0  0  0  0  0  0  0
   18.1998   31.7259   32.4738 N   0  0  0  0  0  0  0  0  0  0  0  0
   17.0577   30.4088   39.0787 O   0  0  0  0  0  0  0  0  0  0  0  0
   18.6629   29.5563   32.8751 O   0  0  0  0  0  0  0  0  0  0  0  0
   16.2137   36.1252   39.7709 O   0  0  0  0  0  0  0  0  0  0  0  0
  1  2  1  0  0  0  0
  1  3  1  0  0  0  0
  1  4  1  0  0  0  0
  4  5  1  0  0  0  0
  4  6  1  0  0  0  0
  4  7  1  0  0  0  0
  7  8  1  0  0  0  0
  7  9  1  0  0  0  0
  7 10  1  0  0  0  0
 10 11  1  0  0  0  0
 10 12  1  0  0  0  0
 10 13  1  0  0  0  0
 14 15  1  0  0  0  0
 14 16  4  0  0  0  0
 16 17  4  0  0  0  0
 14 18  4  0  0  0  0
 18 19  1  0  0  0  0
  1 21  1  0  0  0  0
 13 21  4  0  0  0  0
 16 21  1  0  0  0  0
 13 22  2  0  0  0  0
 17 23  1  0  0  0  0
 17 24  4  0  0  0  0
 24 25  1  0  0  0  0
 18 26  4  0  0  0  0
 24 26  4  0  0  0  0
 20 27  1  0  0  0  0
 27 28  1  0  0  0  0
 29 30  1  0  0  0  0
 30 31  4  0  0  0  0
 27 32  1  0  0  0  0
 31 32  1  0  0  0  0
 32 33  1  0  0  0  0
 32 34  1  0  0  0  0
 31 35  4  0  0  0  0
 35 36  1  0  0  0  0
 37 38  4  0  0  0  0
 38 39  1  0  0  0  0
 38 40  4  0  0  0  0
 40 41  1  0  0  0  0
 40 42  4  0  0  0  0
 42 43  4  0  0  0  0
 43 44  1  0  0  0  0
 37 45  4  0  0  0  0
 43 45  4  0  0  0  0
 45 46  1  0  0  0  0
 47 48  1  0  0  0  0
 47 49  1  0  0  0  0
 47 50  1  0  0  0  0
 26 53  1  0  0  0  0
 27 53  1  0  0  0  0
 29 53  4  0  0  0  0
 30 54  4  0  0  0  0
 37 54  1  0  0  0  0
 35 55  4  0  0  0  0
 54 55  4  0  0  0  0
 36 56  4  0  0  0  0
 51 56  1  0  0  0  0
 52 56  1  0  0  0  0
 29 57  2  0  0  0  0
 36 58  2  0  0  0  0
 42 59  1  0  0  0  0
 47 59  1  0  0  0  0
M  END
