 xtb: 6.7.1pre (5071a88)
          10032619143D

 59 63  0     0  0            999 V2000
   18.5382   38.1452   35.4121 C   0  0  0  0  0  0  0  0  0  0  0  0
   17.8846   37.6010   35.8776 H   0  0  0  0  0  0  0  0  0  0  0  0
   18.0709   38.9146   35.0517 H   0  0  0  0  0  0  0  0  0  0  0  0
   18.4329   37.2060   33.2393 O   0  0  0  0  0  0  0  0  0  0  0  0
   21.8905   27.2362   31.0794 C   0  0  0  0  0  0  0  0  0  0  0  0
   22.9699   27.1769   30.2154 C   0  0  0  0  0  0  0  0  0  0  0  0
   23.5042   26.4165   30.1967 H   0  0  0  0  0  0  0  0  0  0  0  0
   20.7190   26.2679   32.8957 C   0  0  0  0  0  0  0  0  0  0  0  0
   20.7364   25.4863   33.4533 H   0  0  0  0  0  0  0  0  0  0  0  0
   20.8765   27.0477   33.4328 H   0  0  0  0  0  0  0  0  0  0  0  0
   19.8595   26.3389   32.4731 H   0  0  0  0  0  0  0  0  0  0  0  0
   21.7263   26.1647   31.9047 O   0  0  0  0  0  0  0  0  0  0  0  0
   21.7836   34.5206   31.1935 C   0  0  0  0  0  0  0  0  0  0  0  0
   23.1467   35.9939   31.0698 H   0  0  0  0  0  0  0  0  0  0  0  0
   21.9949   34.4300   28.7240 C   0  0  0  0  0  0  0  0  0  0  0  0
   21.0980   34.2207   28.4205 H   0  0  0  0  0  0  0  0  0  0  0  0
   22.0608   35.3931   28.8201 H   0  0  0  0  0  0  0  0  0  0  0  0
   22.4571   32.4515   30.1468 C   0  0  0  0  0  0  0  0  0  0  0  0
   22.6689   31.8056   28.8416 C   0  0  0  0  0  0  0  0  0  0  0  0
   22.9988   32.4756   27.6982 C   0  0  0  0  0  0  0  0  0  0  0  0
   22.9939   33.9642   27.6820 C   0  0  0  0  0  0  0  0  0  0  0  0
   23.8786   34.3037   27.8903 H   0  0  0  0  0  0  0  0  0  0  0  0
   22.7383   34.2885   26.8048 H   0  0  0  0  0  0  0  0  0  0  0  0
   23.2815   31.4765   26.7659 C   0  0  0  0  0  0  0  0  0  0  0  0
   23.7525   31.6501   25.3738 C   0  0  0  0  0  0  0  0  0  0  0  0
   22.4523   29.3521   29.4097 C   0  0  0  0  0  0  0  0  0  0  0  0
   21.3533   29.3999   30.2374 C   0  0  0  0  0  0  0  0  0  0  0  0
   20.7990   30.1469   30.2313 H   0  0  0  0  0  0  0  0  0  0  0  0
   21.0741   28.3409   31.0744 C   0  0  0  0  0  0  0  0  0  0  0  0
   23.2572   28.2298   29.3869 C   0  0  0  0  0  0  0  0  0  0  0  0
   23.9888   28.1896   28.8138 H   0  0  0  0  0  0  0  0  0  0  0  0
   23.9784   30.5996   23.7794 H   0  0  0  0  0  0  0  0  0  0  0  0
   23.3394   29.8895   24.8839 H   0  0  0  0  0  0  0  0  0  0  0  0
   22.2234   33.7953   30.0351 N   0  0  0  0  0  0  0  0  0  0  0  0
   22.7584   30.4695   28.5745 N   0  0  0  0  0  0  0  0  0  0  0  0
   23.1194   30.2568   27.2917 N   0  0  0  0  0  0  0  0  0  0  0  0
   23.7124   30.5640   24.6076 N   0  0  0  0  0  0  0  0  0  0  0  0
   22.5703   31.8811   31.2125 O   0  0  0  0  0  0  0  0  0  0  0  0
   24.1755   32.7336   25.0089 O   0  0  0  0  0  0  0  0  0  0  0  0
   21.2050   37.0355   35.5427 C   0  0  0  0  0  0  0  0  0  0  0  0
   21.8992   37.6522   35.2593 H   0  0  0  0  0  0  0  0  0  0  0  0
   21.6359   36.2029   35.7911 H   0  0  0  0  0  0  0  0  0  0  0  0
   20.5374   37.5913   36.7262 C   0  0  0  0  0  0  0  0  0  0  0  0
   20.0979   36.8701   37.2054 H   0  0  0  0  0  0  0  0  0  0  0  0
   21.2074   37.9705   37.3156 H   0  0  0  0  0  0  0  0  0  0  0  0
   19.5409   38.6280   36.4064 C   0  0  0  0  0  0  0  0  0  0  0  0
   19.0833   38.8938   37.2196 H   0  0  0  0  0  0  0  0  0  0  0  0
   19.9945   39.4087   36.0507 H   0  0  0  0  0  0  0  0  0  0  0  0
   19.0877   37.3475   34.2684 C   0  0  0  0  0  0  0  0  0  0  0  0
   21.9244   36.4461   32.6028 C   0  0  0  0  0  0  0  0  0  0  0  0
   22.3363   37.2494   32.8287 H   0  0  0  0  0  0  0  0  0  0  0  0
   20.8372   36.0043   33.3254 C   0  0  0  0  0  0  0  0  0  0  0  0
   20.2495   34.8050   32.9944 C   0  0  0  0  0  0  0  0  0  0  0  0
   19.5343   34.4878   33.4973 H   0  0  0  0  0  0  0  0  0  0  0  0
   20.7119   34.0726   31.9268 C   0  0  0  0  0  0  0  0  0  0  0  0
   20.2976   33.2711   31.7007 H   0  0  0  0  0  0  0  0  0  0  0  0
   22.4037   35.6997   31.5457 C   0  0  0  0  0  0  0  0  0  0  0  0
   20.3337   28.3737   31.6346 H   0  0  0  0  0  0  0  0  0  0  0  0
   20.3076   36.7826   34.4088 N   0  0  0  0  0  0  0  0  0  0  0  0
  1  2  1  0  0  0  0
  1  3  1  0  0  0  0
  5  6  4  0  0  0  0
  6  7  1  0  0  0  0
  8  9  1  0  0  0  0
  8 10  1  0  0  0  0
  8 11  1  0  0  0  0
  5 12  1  0  0  0  0
  8 12  1  0  0  0  0
 15 16  1  0  0  0  0
 15 17  1  0  0  0  0
 18 19  1  0  0  0  0
 19 20  4  0  0  0  0
 15 21  1  0  0  0  0
 20 21  1  0  0  0  0
 21 22  1  0  0  0  0
 21 23  1  0  0  0  0
 20 24  4  0  0  0  0
 24 25  1  0  0  0  0
 26 27  4  0  0  0  0
 27 28  1  0  0  0  0
  5 29  4  0  0  0  0
 27 29  4  0  0  0  0
  6 30  4  0  0  0  0
 26 30  4  0  0  0  0
 30 31  1  0  0  0  0
 13 34  1  0  0  0  0
 15 34  1  0  0  0  0
 18 34  4  0  0  0  0
 19 35  4  0  0  0  0
 26 35  1  0  0  0  0
 24 36  4  0  0  0  0
 35 36  4  0  0  0  0
 25 37  4  0  0  0  0
 32 37  1  0  0  0  0
 33 37  1  0  0  0  0
 18 38  2  0  0  0  0
 25 39  2  0  0  0  0
 40 41  1  0  0  0  0
 40 42  1  0  0  0  0
 40 43  1  0  0  0  0
 43 44  1  0  0  0  0
 43 45  1  0  0  0  0
  1 46  1  0  0  0  0
 43 46  1  0  0  0  0
 46 47  1  0  0  0  0
 46 48  1  0  0  0  0
  1 49  1  0  0  0  0
  4 49  2  0  0  0  0
 50 51  1  0  0  0  0
 50 52  4  0  0  0  0
 52 53  4  0  0  0  0
 53 54  1  0  0  0  0
 13 55  4  0  0  0  0
 53 55  4  0  0  0  0
 55 56  1  0  0  0  0
 13 57  4  0  0  0  0
 14 57  1  0  0  0  0
 50 57  4  0  0  0  0
 29 58  1  0  0  0  0
 40 59  1  0  0  0  0
 49 59  4  0  0  0  0
 52 59  1  0  0  0  0
M  END
